  120
MD iter: 379
    C     -1.55285354     -0.72561280      3.08937300      3.98109867     -3.58111229      1.40388421      3.12445110
    C     -0.20913524     -1.21044989      3.10463258      3.99834066     -0.05928197     -5.85675692      3.69619087
    C      0.86423298     -0.27490766      3.11484025      4.00224054      1.14619984     -0.63097619      1.19419849
    C      0.52329216      1.12962188      3.06129550      3.99277635      3.07717892     -5.78506829     -0.15843430
    C     -0.77889990      1.60318427      3.02809334      3.99873617      5.66526040      1.84178215     -6.95076995
    C     -1.90636907      0.64940028      3.06199004      4.01498050     -2.05481327      1.48756467      1.17007676
    C     -2.32414557     -1.65714036      2.32873596      4.00972369     -2.62288820      4.28392439     -0.49126288
    C     -1.44024404     -2.69807761      1.81403934      4.00368876     -4.24639834     -1.49534736     -0.82703052
    C     -0.10197717     -2.45208286      2.33189017      4.01243350     -5.72441952      4.88191291     -0.63113218
    C      1.07909778     -2.69658825      1.56165117      4.00023368     -1.16464362      3.77187441     -5.22735500
    C      2.07471272     -0.51188577      2.34031947      3.99841242    -10.80791534     -5.42263766      4.43165064
    C      1.55063371      1.78633546      2.26049341      4.00552550     -9.75364935     -4.11994218      0.78147458
    C      1.20896616      2.81122473      1.38487524      3.99340897     -5.59386120      0.25669498      4.78122686
    C     -0.11159713      3.29591858      1.30494818      3.99657767     -0.54307628     -2.07870717     -3.84473796
    C     -1.10025359      2.69743180      2.14269008      4.00866027      2.43272384      4.18552055     -0.31496722
    C     -2.40095649      2.42537302      1.57976437      3.98832947      2.94896527     -0.05037808     -0.01294612
    C     -2.92016453      1.16479245      2.17366598      3.99519190      2.39738609     11.29598102      0.07139689
    C     -3.64823876      0.26219172      1.37911077      4.00771800     -7.86223604      4.62888003     -1.87190040
    C     -3.33160871     -1.18466961      1.41286773      3.99550061     -3.07255931      2.95088936     -3.42047718
    C     -1.53128090     -3.19532508      0.49650813      3.98470385     -7.28483010     -1.11958737      0.13000191
    C     -2.57063105     -2.76441881     -0.39806689      4.01547244     -3.31761527      7.50123944      0.33283819
    C     -3.46082855     -1.72871561      0.06471632      3.99463440      0.60499792      5.35779067     -5.77774884
    C     -3.79591748     -0.63204679     -0.80410828      3.98382170     12.84291283      4.20311234      4.68513760
    C     -3.95670495      0.61142130     -0.03910210      4.01520047     -4.83470212      7.46157462      1.67134404
    C     -3.49549867      1.81939244     -0.54700529      3.98813427      1.83298629      2.17219020     -4.58539749
    C     -2.69645084      2.76015932      0.26801524      4.00382880      5.22555310      3.45340053      2.50238289
    C     -1.72567597      3.36672127     -0.62234410      3.99556934      3.53699196      6.86152566      3.37751046
    C     -0.43905774      3.64198718     -0.06583911      3.99954023     -0.14758341      2.17609182     -5.28198954
    C      2.48693798      0.77889619      1.76403716      4.00445838     12.66830344     -3.98788259      0.24750121
    C      1.51864270      1.81188748     -2.59999522      3.99615396      0.35250933      2.26790086     -1.33021809
    C      2.49235975      1.33221972     -1.77284976      3.99438868     -3.33538451    -10.96763318      0.39486181
    C      2.80011488     -0.13346573     -1.70597465      4.00349583     -1.84895038     -1.54741887     -0.23678495
    C      2.07744102     -0.99080420     -2.51621487      4.00173825      2.27418763     -9.59553269      1.83156514
    C      1.01794070     -0.53346878     -3.30829035      3.98296687     -3.17823651      3.77215290     -2.79555457
    C     -0.63509253      1.28731536     -3.48413112      3.98247282      1.80769874     -0.85508801     -2.81120952
    C     -0.71629682      2.56987800     -2.71078158      4.00139105      2.35431610      8.44759957     -6.93956247
    C      0.58290271      2.88978387     -2.16474268      4.00865262      4.27438519     -5.04045080      0.10117570
    C      0.71636248      3.40027533     -0.82860027      4.01069225      5.99645614     -5.76437298      4.58898722
    C      1.75150153      2.80934009      0.06983949      3.99224538      2.39953852      5.10233080     -0.01917638
    C      2.63180240      1.86411609     -0.42312326      4.00706945     -5.40628877     -2.82347144     -3.69619872
    C      3.10127073     -0.43449453     -0.28969680      3.99855102      2.86766659    -14.63739511      1.58671947
    C      2.69993581     -1.67872572      0.24530873      4.01447579      3.43340782     -3.93409661     -3.95680544
    C      1.91648251     -2.56315340     -0.56682081      3.97428925     -7.82754162     -6.96864252      0.21917701
    C      1.64820361     -2.25834792     -1.89164298      4.01459511     -7.46080687      2.33531881     -2.11311154
    C      0.36088548     -2.58023365     -2.50023448      3.99601044      3.52020276    -11.25128842      2.79337126
    C     -0.01026389     -1.50568096     -3.35783247      4.00702236     -0.45838955     -1.81626357     -1.39643576
    C     -1.42001475     -1.07290124     -3.42805496      3.99901109     -4.14079334      6.64988108      5.66751901
    C     -1.66092674      0.36190584     -3.51591966      4.00876280     -4.40521876     -0.50381429     -0.64448470
    C     -1.88122490      2.82499195     -1.94895462      3.99357800      4.73907676     -1.39919506      8.13421332
    C     -2.98017664      1.84288607     -1.92906499      4.01742312     -0.66641731      5.84503928      0.87152270
    C     -2.84602933      0.62690026     -2.67360531      3.99635229     -0.90388259     -4.26340748      8.17480436
    C     -3.27344715     -0.64170287     -2.09600692      4.01187242      2.12998337     -6.10885586      1.05427368
    C     -2.36153211     -1.66768108     -2.59585027      3.98552251      1.36075935     -2.84694234     -3.65657218
    C     -1.99888752     -2.69587884     -1.70952918      4.00071733      4.92607676     -2.39274483     -3.60653391
    C     -0.59935676     -3.17916233     -1.66207387      4.00832787    -10.49873734     -3.66249953     -1.65241743
    C     -0.39140332     -3.46111616     -0.28587774      3.99666940     -2.10107202     -2.69905425     -5.22242612
    C      0.95073376     -3.20764077      0.24999422      4.00620425     -4.89078313     -4.21881808      3.04437021
    C      2.96930010      0.79500605      0.48668754      3.98595977     -6.83020022     -1.29501324      0.69959568
    C      2.15584499     -1.66299070      1.60830604      3.99702272      3.34379331     -2.08699470     -1.07023672
    C      0.72347822      0.88699442     -3.40628873      4.01636615      1.84413516     -7.00645310     -0.07854216
    C      0.09575349     -1.78310761     12.77128906      3.98741027      6.14922237      0.72437539     -6.04372405
    C      1.48454412     -1.86433586     12.40315147      3.99333214     -1.14424277      2.44395911      2.80117134
    C      2.32915692     -0.72293207     12.46293282      4.01281657      1.70046116     -2.40603733      3.35157371
    C      1.74663747      0.54567457     12.96373605      4.00542039      8.76533906      1.39228250      7.72758802
    C      0.36073163      0.63896839     13.34573021      4.00529149      3.40124575      3.70528912      6.30508421
    C     -0.48312997     -0.57753870     13.26490610      4.00794879      1.61568690      0.89636730     -2.65397381
    C     -0.64125177     -2.68396755     11.92005453      4.01200152      8.13958008     -4.16215754     -3.87341817
    C      0.29125200     -3.19536395     10.88455636      3.98929012     -1.11217118      4.87229973     -2.96334117
    C      1.59759367     -2.76699164     11.28002956      4.01528646     -3.38624535      7.75407322    -10.16723006
    C      2.48468411     -2.48023770     10.22623737      3.98898760     -6.82141944     -1.70685255     -1.78745370
    C      3.25717327     -0.42727101     11.36772644      3.99341677      4.44196182      1.70556952     -2.94537227
    C      2.37237085      1.62206029     12.18729885      4.00563523      0.97907182     -0.93518551     -0.50776520
    C      1.52256100      2.70699160     11.79059860      4.00277017      3.96637523      0.54599272      2.68352112
    C      0.11051812      2.81101133     12.10638170      3.97908530     -4.01406225      0.84332022      0.34193681
    C     -0.40567916      1.78645822     12.90954407      4.00406390      3.37416919     -0.52226272      6.01687851
    C     -1.75393955      1.24277476     12.58395071      4.00052954      9.25062212     -7.18525410      2.00934764
    C     -1.74792646     -0.18906929     12.78374464      3.99466179     10.80080504     -1.72362810      5.23725512
    C     -2.40866556     -1.05054700     11.88205085      3.99122201     -2.95068407      2.82023461      3.37268834
    C     -1.88661491     -2.33378147     11.48989515      3.98520554      3.38985118     -7.82549008     -2.71617472
    C     -0.06762051     -3.36518759      9.58423843      3.99128315     -4.33258879     -4.45551322     -4.25974590
    C     -1.40199623     -3.06618374      9.12466602      4.00598469     -5.78223367      2.22039612      3.74174621
    C     -2.35926733     -2.54283719     10.08030032      4.02959202     -5.44873498      3.28780776      0.28850755
    C     -3.11589624     -1.34873302      9.63258292      3.98537957      1.44390467      3.14456064      0.05928820
    C     -3.18881026     -0.49886700     10.80423382      4.01625948     -3.83997248     -2.86606663      4.01336192
    C     -3.20899556      0.93837159     10.60726103      3.98456833      7.15813764      4.50505946      1.07315909
    C     -2.49377287      1.79073115     11.51018206      4.01600891      0.44214504     -6.65905091     -0.20411561
    C     -1.92919576      2.79097584     10.65891858      3.97331966      0.74267258      0.46078133      4.03332123
    C     -0.66428014      3.32179930     11.01393745      4.01402504      6.78574598     -0.92936166     -1.72153542
    C      3.28643238      1.01779454     11.26284991      3.97802547      3.53822747     -4.41791738      0.02574180
    C      0.87098514      2.90384572      7.67070536      3.99582353      5.49781854      8.30098491      6.27644992
    C      2.17932804      2.51814447      8.13771443      4.01483763      1.32287386      6.18565913      5.93361419
    C      2.83501471      1.28804788      7.66920736      4.01563088     -2.24780512      3.87540961      2.18738642
    C      2.07381487      0.42791274      6.80115582      4.00040806      2.40182885      2.73409630     -3.56033618
    C      0.72445890      0.81026193      6.38384920      3.99057477      6.07328350     -3.15736070      0.00849399
    C     -1.22033633      2.07756745      7.13075959      4.01316659     -5.09303170      2.89878986     -2.75055975
    C     -1.32527726      2.93512082      8.31199004      3.98194989     -5.87572459     -7.34187485      4.78413737
    C     -0.07484092      3.50623940      8.62898902      4.00735785      0.62938675      0.81623489      2.83008832
    C      0.29756607      3.66909250      9.95827073      3.99544957      4.02422401    -14.34816088      7.68110306
    C      1.65404006      3.24795762     10.40289639      4.02496623      5.41476861      0.06498048     -1.42372302
    C      2.52032115      2.62346920      9.53636881      3.96459174      1.41258178      1.46050003     -1.04056324
    C      3.53287859      0.68225481      8.80175919      3.98503686     -0.67979428      2.48387253     -4.06734029
    C      3.50836433     -0.72256437      8.96989478      4.01485501      0.54420948      4.33378854     -6.08551227
    C      2.72042334     -1.53941829      8.10056761      3.98219280     -5.24032093      3.54035124     -0.12095597
    C      2.05807197     -1.00464700      7.01783801      3.99797944     -4.21619000     -5.06980316     -0.06298706
    C      0.73905777     -1.54028939      6.64422537      4.00837078     -3.25765665      7.41887415      3.17627027
    C     -0.12471290     -0.40305230      6.26931735      4.01402353     -3.15805214      6.97659806     -0.39914300
    C     -1.47006905     -0.35133412      6.66346984      3.99324820     -9.04803415      6.22833358     -2.20496860
    C     -2.07860825      0.91712319      7.07855838      3.99893128     -6.26682565      3.37073387      7.63318136
    C     -2.27544968      2.61232132      9.31899233      4.02102811     -4.51412315     -4.18335405      1.07923252
    C     -3.17816478      1.41495208      9.27820319      4.00930144      3.29515977     10.46797800     -0.48643257
    C     -3.03123635      0.61150927      8.09295783      4.00161134      2.73689911     -4.10703140      7.37515950
    C     -3.00233142     -0.82788345      8.38336759      3.99422445     -2.21893851      3.80173975      0.22205163
    C     -2.06160222     -1.37023469      7.45933393      3.99124167      0.82957682      4.63260184      6.80582074
    C     -1.26668657     -2.45828476      7.81583682      3.99448472     -5.01280674     -4.54626298     -5.91900923
    C      0.13126585     -2.58976988      7.42353919      4.00737312      4.76369103     -1.03401874     -4.21215148
    C      0.86873550     -3.12074808      8.52992101      3.98947680     -1.61746519      4.23165026     -2.23252272
    C      2.13882833     -2.66999518      8.87571877      4.01359503      3.94137870      2.58649171    -13.17400487
    C      3.40034324      1.55817416      9.98193359      4.02175756      3.71464463     -2.86825176     -8.78295998
    C      3.33854862     -1.28622453     10.29592380      3.99864854      2.20741709     -8.30645847     -3.28962915
    C      0.18199455      2.02831554      6.78608825      3.99009862     -2.99520876      2.66199070     -0.15562944
