  120
MD iter: 339
    C     -1.51460378     -0.80215104      3.12106094      3.99677232     -6.90646161      4.32291522     -1.97384387
    C     -0.10183978     -1.21914104      3.22686220      4.01835508    -11.20669796     -2.97488074      3.35598157
    C      0.93623412     -0.16977154      3.18086782      4.00473756     -5.47069076      5.63757535      6.44377345
    C      0.55016928      1.22158123      3.09366967      4.00020803     -0.32244418      7.71544245      4.56879883
    C     -0.76268695      1.61768200      2.98836213      3.97400403      5.59430789      0.09177336      0.29185696
    C     -1.81627069      0.60358281      3.03156957      4.01934913      4.06329881      5.25457260      1.21196402
    C     -2.22000435     -1.73457580      2.29543830      3.99564939     -4.59689382      1.14476954     -5.43908005
    C     -1.27862749     -2.76157395      1.86003702      3.99898178      1.51017835     -8.05849851     -1.83775943
    C      0.03785878     -2.38956305      2.39030282      3.99845579     -0.40402791     -0.66610828      0.50270092
    C      1.17975530     -2.58746681      1.56138228      3.98563355     -3.44444399     -8.01587105     -2.75843980
    C      2.11536829     -0.36870978      2.32357593      3.98001453     -4.17353974     -2.92940983     -2.91727009
    C      1.53174763      1.88555312      2.24453559      3.97971123      4.69415886     -6.89042550     -8.20342914
    C      1.15995344      2.93411055      1.40033123      4.01507409      4.09191713     -4.09755592     -3.94345388
    C     -0.24996535      3.29699109      1.31076131      3.97711772     -0.64185698     -3.38003265     -5.69183768
    C     -1.21369054      2.69256151      2.14780845      4.03001345      0.25418695      6.15977956     -1.24361795
    C     -2.49940298      2.27166268      1.60962288      3.97910799      1.77470233      0.93853992      3.78351788
    C     -2.88819056      0.99614256      2.12536180      3.99770684      3.89307825      2.05258972      2.59642877
    C     -3.61662576      0.08003821      1.34191023      3.99817610      0.15744568     -0.84947000     -7.52160319
    C     -3.26778514     -1.34601736      1.40780665      3.99397316     -4.23864054      3.66107876     -0.23141441
    C     -1.42471043     -3.29149950      0.55067721      4.00849823     -2.72643127     -0.10359612      8.99130568
    C     -2.46005451     -2.84675456     -0.35250449      3.99394264     -3.75100066      8.20454646     -0.23674804
    C     -3.42788217     -1.91282978      0.08888532      4.01076643     -6.43708835     -1.48544741     -0.30822804
    C     -3.78332703     -0.82276888     -0.83401932      3.96363785     -0.02661789      2.62015222     -2.87455636
    C     -3.98693594      0.39784284     -0.03306266      4.02715339      1.28922592      3.94267455      2.73164879
    C     -3.56095509      1.66482248     -0.54197512      3.98880851      5.63946757      0.58271169     -7.13045659
    C     -2.80915828      2.61588822      0.30316506      4.00617037     -0.15555594     -3.20979475      0.83777715
    C     -1.87653089      3.27466204     -0.59174939      4.01125184      2.42559158      5.90849995      7.41649194
    C     -0.60801456      3.61442560     -0.04506169      4.00619390     -3.96814881     -2.32222109     -0.78803246
    C      2.57619770      0.95128831      1.78177745      4.03379247      3.70838333     -2.60539312      0.90196496
    C      1.52218482      1.90618162     -2.63705779      3.99089924      0.06472603     -1.91701566     -4.27205365
    C      2.51693717      1.49640263     -1.76207673      4.00158602      6.37947914     -5.74701155     -4.26744413
    C      2.87305695      0.05769000     -1.70162312      3.98629223      0.23045712      0.03153239      1.24709200
    C      2.19064799     -0.87890039     -2.48710702      4.01928150     -0.45712633     -8.94792260      1.53666398
    C      1.09231725     -0.43985353     -3.39926266      3.99391300     -4.76825536     -4.39885514     -6.68588584
    C     -0.68300898      1.36714442     -3.49661975      3.97392111     -3.03468530     -2.84453233      0.24352826
    C     -0.77491240      2.58027747     -2.70433588      4.03176904      4.32273487      3.11607029     -2.94010216
    C      0.56642329      2.87843610     -2.12547368      3.99532870     -3.91554599     -4.56538805     -0.81625159
    C      0.63481055      3.42384942     -0.80944300      3.99987852      3.19811699     -4.84817434      5.57938329
    C      1.71950861      3.06991123      0.06364857      3.99595505     -2.23390158      8.54716314      5.27101415
    C      2.65804822      2.07259411     -0.35545459      4.01821894      7.35845188      1.51293183      4.44011918
    C      3.21696997     -0.24387610     -0.30673091      4.01456664      1.81969639     -5.25391477      0.02425377
    C      2.82699207     -1.51369116      0.22904041      4.00535760     -5.32741401     -0.85466817      5.90531707
    C      2.01571290     -2.46161224     -0.59037172      3.99685358     -2.67835371    -10.57838560     -1.48066891
    C      1.66758678     -2.10107424     -1.88492511      3.98197155     -3.24349608     -1.88299374     -4.94071148
    C      0.40572524     -2.44571375     -2.45971914      4.00283982     -6.23787049     -3.16429574      1.83848901
    C      0.04114689     -1.37161474     -3.34811959      4.01359226     -3.04598524      1.80200480     -1.54417033
    C     -1.36189229     -0.97387984     -3.34973819      3.97560143      5.49295983     -0.67761520      0.83185259
    C     -1.69653237      0.41715119     -3.49083699      4.01609500     -1.00127639      2.56536702     -4.49116282
    C     -1.94058395      2.67171208     -1.91325539      3.96436827      6.19528335      1.53290730      3.11815392
    C     -3.04815867      1.76726850     -1.91537705      4.02393557      1.40229398     11.66541988     -1.18449397
    C     -2.90950686      0.58413324     -2.69456896      3.97320931     -3.25773233     -4.79353966      1.48017635
    C     -3.35377771     -0.72028596     -2.17782234      4.03295069     -2.10225772      2.92191925     -4.00834139
    C     -2.32249941     -1.71586099     -2.60701023      4.01358827     -9.73345358      0.03257083      3.99084008
    C     -1.87191717     -2.70033001     -1.70065821      3.99011321     -3.06069880      4.40570833     -0.27902927
    C     -0.52199910     -3.09622908     -1.62937591      3.99534955     -6.90694362      6.69357341     -2.59312118
    C     -0.26371935     -3.47270468     -0.29074584      3.99426207     -1.20301266      1.29907587      0.20505294
    C      1.07518872     -3.16132766      0.27000393      4.01682248     -5.47572561     -7.61738842      1.70053567
    C      3.02770949      0.97912684      0.49320327      3.95376354      0.98270180     -1.17295344      1.94338188
    C      2.26868759     -1.52523943      1.59004150      4.01324732      4.55168989     -7.74369140     -3.93987228
    C      0.74486695      0.98267837     -3.48637812      4.01927002      9.58143051     -9.43698672      2.06695393
    C      0.03904022     -1.78371681     12.84334619      3.98911708     -0.03319578     -9.38610935     -0.54447195
    C      1.46878972     -1.82596770     12.54303416      3.99857729      9.09552666     -2.69321104      4.16780618
    C      2.23359090     -0.63205683     12.58767102      4.00662035      2.99975844     -1.38480758     -3.41451969
    C      1.56854252      0.62306817     12.95165927      4.00916318      4.54016370      1.84747633     -2.61166779
    C      0.18321599      0.66705841     13.25650062      4.00136191      4.43243608     -2.07545989      0.03228635
    C     -0.64282606     -0.57072082     13.18112747      4.00363977      0.21444394     -1.70689963     -0.47132489
    C     -0.71663581     -2.72081681     11.95529319      4.03237838      2.02413589     -2.23150364     -0.26375530
    C      0.30626572     -3.30155940     11.04182038      3.98629967      7.12815066     -9.76795294      0.64077646
    C      1.62289590     -2.74109051     11.42894301      4.00023581     -0.02269320     -3.54193020     -6.34483648
    C      2.56639659     -2.46793970     10.43713363      3.98057867     -3.06890296      3.26660362     -3.18813807
    C      3.17189005     -0.38204939     11.49916450      3.99440695      6.68026145     -2.25544089     -3.43554459
    C      2.12898877      1.66103383     12.11938368      3.98406636     -1.65960811      1.38641334     -3.64336055
    C      1.40614109      2.80300969     11.70981451      4.01231565      5.06526541      2.29687147     -6.25795656
    C     -0.05491772      2.85713177     12.04773193      3.99239458      0.78299064     -2.34786501      2.40665572
    C     -0.63089564      1.79442158     12.80979276      4.01117487     -4.60596583     -1.52254231      1.08247353
    C     -1.91955980      1.23905274     12.45837439      3.97848950      1.80334229      2.54098816      1.38523646
    C     -1.96377135     -0.20067763     12.71949375      4.00718395      1.51395521    -11.75411232      6.57861542
    C     -2.69118406     -1.03258256     11.81737339      3.99310412      0.36533167     -1.71700397      2.33576582
    C     -1.94051692     -2.28358362     11.40546983      3.98175353      2.61801275      6.10090117      4.66090737
    C     -0.01770217     -3.52771135      9.71364710      4.01778750      5.19152697     -6.51714797     -7.85779924
    C     -1.31855178     -3.09543649      9.20972475      3.99050313      1.93166868      6.18385850     -7.37623763
    C     -2.27296517     -2.44193638     10.06286312      4.00928346     -1.57840506      3.95599662      9.64450983
    C     -3.09524926     -1.35145279      9.58130606      3.96167201     -3.05136181      5.97206263      0.66810434
    C     -3.36892820     -0.48154224     10.70459598      4.03845116     -3.73417856      5.44274958     -0.97538304
    C     -3.25061936      0.97805259     10.46648894      3.97019209      2.38657257      4.73968107      1.31333555
    C     -2.60782014      1.83782779     11.36348047      4.01480111      7.08997572     -1.40263529      4.98097892
    C     -2.03335889      2.94122746     10.57642293      3.99928407     -0.76806552     -4.19357001     12.03804826
    C     -0.72395533      3.43216599     10.90586482      4.00422233      5.98038965      5.72643441      1.84107661
    C      3.13155832      1.04189625     11.26689599      3.99246593      3.61467280     -0.38334817      4.26653668
    C      0.88646166      2.83368641      7.63102079      4.00371915     -7.65878394      4.67216338      7.69037429
    C      2.19042326      2.46344039      8.10230122      4.00465038     -5.56320000      0.60964937     -7.78273771
    C      2.73463108      1.19332831      7.71840184      3.97803129     -4.09428089     -2.42369972      1.99653837
    C      2.12036492      0.34329334      6.77554932      4.02779592      1.42406206     -0.07987632     -1.74362495
    C      0.77261757      0.66739261      6.32922401      3.99036448      6.05637193      4.32756520     -2.34303741
    C     -1.18601206      2.02546354      7.05397051      4.00429239     -4.06265460      2.25021835      0.26926768
    C     -1.37400369      2.90641839      8.17562491      3.98562056     -0.92185064      4.22394866      4.47484401
    C     -0.05192484      3.47527725      8.56113836      4.02990682      3.30251717     -1.33381756      1.47037192
    C      0.25198643      3.62774203      9.89601741      3.95576367     -3.29458835     -1.58676439      2.50215942
    C      1.62135857      3.33380769     10.37089129      4.01523707      9.02614539      0.30580079      8.20950957
    C      2.54400629      2.74850470      9.47956662      3.99154539      7.03037769      1.12888337      3.61066432
    C      3.44848998      0.64064491      8.85652069      3.98162106      0.56917540      1.63684867      1.23939693
    C      3.54780047     -0.75711479      9.11074871      4.02084745     -1.88211716      0.76939340     -0.33040740
    C      2.80931220     -1.65948952      8.21493262      3.98121770      3.79625046      4.24704351     -4.96527914
    C      2.14317841     -1.15519425      7.08690832      4.02286151      8.07866021     -0.93177775     -4.82110442
    C      0.79147579     -1.61402597      6.75593351      3.98596053    -10.22060875      3.11083759     -4.95994149
    C     -0.03090865     -0.54667879      6.26319661      3.97996686     -7.78738916      6.55923646     -3.48304105
    C     -1.39402615     -0.46245541      6.53615353      4.00919344     -7.92913232      4.47080846     -1.85138213
    C     -1.96882120      0.80551644      6.97537044      3.99223846      1.60947401      5.47668570      4.46654704
    C     -2.36227268      2.69066204      9.17663183      4.00629111      8.45090790      7.50131279      2.83612317
    C     -3.10838655      1.50121801      9.12401564      4.01344653      4.39047159      7.81038680      1.41064924
    C     -2.90317981      0.55110434      8.04215702      3.99278811     -2.60930625     -5.85569175     11.68603160
    C     -2.96775092     -0.91410481      8.30956715      4.02603942     -8.73086734     -2.89589115     -7.65309920
    C     -1.94720157     -1.54593175      7.39842324      4.00099470      3.08593047     -3.49401072     -3.96154586
    C     -1.16730246     -2.64611860      7.86107306      4.00505683      0.70293827     -3.06644097     -0.67868475
    C      0.25393586     -2.68386472      7.53613492      4.01141952     -5.99417072      3.48143852      0.46421660
    C      0.99376922     -3.19571426      8.67777905      3.97941629     -5.00906631      4.58616734      6.50999317
    C      2.27808015     -2.76404883      9.04451930      4.02513014      3.68307372      2.18397931     -1.53630726
    C      3.37033752      1.57058611      9.95913682      4.02903901     -0.93738563     -3.17972480    -13.57973479
    C      3.38381773     -1.28389306     10.46960741      3.99338711     -0.86087796     -4.11973684     -3.63694760
    C      0.18287650      1.88977308      6.73622189      3.99657375     -5.10796977      4.70673941      4.31813103
