  120
MD iter: 279
    C     -1.36915968     -0.82531159      3.14162764      4.01166261      3.19631533      6.60569168      0.36686172
    C      0.04772833     -1.17284217      3.16828082      3.99491732     -7.13357994     -1.84980257      0.39650944
    C      1.04468310     -0.12929900      3.12877312      4.00446628      0.78063190     -1.36625225      4.00862023
    C      0.50665991      1.26647913      3.08455960      3.97458480     -1.14237093     -0.24707600      4.38577149
    C     -0.86123619      1.59786375      3.17119427      4.02841614      6.99278730     -1.96353671     -0.24551998
    C     -1.86793469      0.52605933      3.09034241      3.98994528     -6.38537737     -5.32901629     -3.32940690
    C     -2.03661620     -1.82613900      2.30160272      3.99799412     -6.08118363      3.41015386     -0.89996168
    C     -1.06713433     -2.72607878      1.79703485      3.99321637     -6.38079583     -4.23048588     -6.66648693
    C      0.23956444     -2.34014131      2.39385277      3.99921611     -5.30573780      3.25078631     -3.33963279
    C      1.39979964     -2.50933928      1.58744321      4.02132528     -5.42960456     -1.28774384      1.95972401
    C      2.19808383     -0.23719917      2.29994963      4.02666156     -5.31148156     -6.09320918      3.19964065
    C      1.43522775      2.03015302      2.28308907      4.02329541      7.63267129     -6.70174645     -0.17300095
    C      0.95063820      3.02000172      1.41143730      3.98527658     -0.59235389     -0.96079339     -6.31261799
    C     -0.48590689      3.35231927      1.39453614      4.01686616      5.00603789     -3.17914240     -0.46701031
    C     -1.36885641      2.67116929      2.25329137      3.98092631     -4.12452758     -2.19791288      3.75510381
    C     -2.66798870      2.28428207      1.67187597      4.01806960      2.41310841      4.47110487     -1.21457753
    C     -2.91659322      0.88913737      2.19512314      3.98357470     -0.03924521      4.77404294      4.11811771
    C     -3.53592599     -0.07593965      1.40594791      4.00518232     -0.19636095      0.71462398      0.16115462
    C     -3.11025602     -1.46844471      1.48091283      4.00240458     -6.99574115      2.20384331     -5.06908019
    C     -1.11348739     -3.27970579      0.54126747      3.98657650      1.11690387      4.03073565     12.53194803
    C     -2.21059444     -2.93080930     -0.34526797      4.02078398     -7.23120378      2.44606295      3.49884490
    C     -3.17626659     -2.02686197      0.14684791      3.98433632     -8.99545540      5.01666939     -3.74066916
    C     -3.69947719     -0.97259955     -0.78422493      4.04192176      3.85950641      6.43884261      0.74509340
    C     -3.82244004      0.23246774      0.05087010      3.97376276     -0.22385674      1.48350521     -1.25706384
    C     -3.58654718      1.54382792     -0.48376501      4.02256140      1.94084501      0.12670195     -2.62728291
    C     -2.99277202      2.57652234      0.33565594      3.98801648      0.84521291     -0.84920774     -0.10351175
    C     -2.05248189      3.30358858     -0.55467305      4.00256041      5.09139285      6.42889669     -0.49516213
    C     -0.77129995      3.67393286     -0.03524236      3.99480732     -2.47127259      1.61816872     -7.38556661
    C      2.40326334      1.10315983      1.72890417      3.96172257      8.13011327    -12.89646138      2.71243970
    C      1.34837460      2.03531723     -2.53928692      3.98768488      3.34232446     -2.39277938     -1.40943019
    C      2.41877185      1.68241232     -1.71998775      3.99718628     -0.71622469     -0.05749227      2.55865419
    C      2.84936722      0.27891005     -1.67171056      4.00855361     -1.81785923     -2.80576287      2.24267616
    C      2.22642612     -0.67854577     -2.47808799      3.99370122     -3.14550539     -1.25039764     -9.29647997
    C      1.11856969     -0.30984820     -3.42820263      4.00994978      0.80855637      3.96584182      2.27232487
    C     -0.73119622      1.39640278     -3.47739348      4.03240155     -1.18219810    -13.84899510     -2.75894572
    C     -0.96446687      2.54448448     -2.64237828      3.95711860      6.53352767      7.04613376     -0.52559894
    C      0.32485506      3.00182064     -2.15571864      4.01969580     -4.26406959     -3.32859638     -4.02846575
    C      0.45206979      3.57680059     -0.82343868      3.99818739     -2.78818191     -1.80135428     -2.22373995
    C      1.50691448      3.14041243      0.03803053      4.00773152      4.97946183      6.23645426      0.03731400
    C      2.52723886      2.22148511     -0.41228981      3.99110261      7.28676436     -2.26550435     -5.93461519
    C      3.15509871     -0.00238392     -0.32060108      3.97278636      1.58214194      5.83514525      0.17617286
    C      2.91755612     -1.30820383      0.21161825      4.03395975      2.70503430    -10.53753294     -1.65428268
    C      2.28723465     -2.32114969     -0.62921099      3.99304877     -0.72137009      0.70682487      0.25961876
    C      1.94127127     -2.01030881     -1.96711946      4.00472278     -2.35115225      0.18089326      3.67282688
    C      0.65476583     -2.44783307     -2.50162368      3.99843273     -0.00204978    -10.17064192     -2.44601769
    C      0.16016700     -1.38845081     -3.42674407      3.98983717     -5.88509096     -4.61905945     -3.13316731
    C     -1.19776327     -1.01509057     -3.45756405      4.01988482     -1.80551912      0.07176757      2.07502216
    C     -1.63282911      0.38242530     -3.40914923      3.94922922      4.83450809      9.26726139     -0.31507446
    C     -2.16295553      2.74107532     -1.91435861      4.03686878     -0.47290701      0.33391734     -0.77899511
    C     -3.05136153      1.61543306     -1.81027874      3.95497165      5.28400166      9.32995086      2.09279587
    C     -2.87578811      0.49762198     -2.67590055      4.04322685      4.73904950     -2.01338373      0.44725458
    C     -3.18304540     -0.82879836     -2.14366152      3.98216285     -2.97912536      3.15592872      5.56689301
    C     -2.14250379     -1.75192960     -2.58667472      4.00118925     -4.23084422     -2.81659503     -4.42126115
    C     -1.63754692     -2.75334319     -1.72730064      3.99636131    -10.07651898      1.94864929      2.37275041
    C     -0.21610743     -3.12159152     -1.64699558      3.99085309     -0.75257430     -1.64773909     -9.02365615
    C      0.11762696     -3.48836731     -0.26876090      4.00815227      1.11274181     -0.77578738      0.33297752
    C      1.38080958     -3.07870194      0.22281945      3.99077438     -2.01279135     -6.59982160      4.32006979
    C      2.98449053      1.20172883      0.48556213      4.02578102      0.24910977     -2.63641617      4.36641363
    C      2.34468376     -1.38003294      1.52600379      3.96581548     -2.99675259     -4.03727033      1.10124449
    C      0.71685395      1.05541326     -3.41600944      4.00271891     -2.75674095     -6.32954062      1.47486426
    C     -0.18910819     -1.64146229     12.93307008      4.01451271      4.43810454     -2.97345052     -7.38848094
    C      1.25446923     -1.63955441     12.62773240      3.98007479      2.97029579     -0.24622967     -1.54355186
    C      2.06810353     -0.48281767     12.73514259      4.01672149      3.67975825     -2.73927826      4.55830863
    C      1.40083321      0.74245212     13.03002529      3.97907305      0.06565752      6.55829198      0.93862529
    C      0.00314893      0.79546527     13.27181769      4.01238994      0.55927063     -4.79284869      4.64095874
    C     -0.83235537     -0.40543558     13.20269444      4.00072199      9.83571422      1.55389585      0.05388013
    C     -0.83666529     -2.61374611     11.99588558      4.00511372     -2.75610764      2.35258307      6.40407418
    C      0.22952841     -3.20063389     11.22743395      4.00355016      1.65685966     -3.01812924      0.12905170
    C      1.51141376     -2.62761921     11.60262631      3.99309062     -1.23702434     -3.80403114     -6.93556824
    C      2.48816776     -2.37018608     10.62813640      4.01408816     -5.16593117     -2.01361534    -12.12587355
    C      3.07594131     -0.20162826     11.71663604      3.99755907      5.27633392      0.08858206     -0.43658774
    C      2.01381723      1.83832420     12.26415790      4.01932261      5.99601189     -2.57591026     -3.77831398
    C      1.23050326      2.89795111     11.70516462      4.00041563     -4.76065651     -4.38485782      5.04458022
    C     -0.19113788      2.87604149     11.96271408      4.00306722      1.77362350     -2.59963576      2.14788146
    C     -0.78247797      1.87652135     12.73469505      3.97981728      9.79109616      5.84390174      4.62728311
    C     -2.08428498      1.36278241     12.33372932      4.01804709     -2.22271693     -7.29970288      0.33549109
    C     -2.11302632     -0.05142569     12.58706756      3.98649194      4.07796953     -1.40254664      6.30228117
    C     -2.73127303     -1.00906931     11.74953583      4.00444143      2.93496107      8.33023357      8.15675113
    C     -2.04311264     -2.25759877     11.35691293      3.99706995      5.36205969      1.75022156      3.07848565
    C     -0.09180281     -3.46330715      9.87984978      3.98132679     -2.19385346     -7.82130901     -2.30121188
    C     -1.33857019     -3.24000416      9.16516641      4.03694956      5.02831612     -5.47662593     -1.85706308
    C     -2.28862507     -2.51648768      9.98730911      3.96124649     -7.37902825      4.49715173     -3.88587124
    C     -3.18739458     -1.54302467      9.42096385      4.04172668      0.82948728     -3.69309036     -1.56622081
    C     -3.40380817     -0.57521967     10.59232948      3.99661787      0.10159692      0.34017408      3.24431523
    C     -3.35597940      0.81274460     10.24811635      4.00944813     -0.82820856      2.68513358      0.55879636
    C     -2.70002745      1.75258332     11.12572089      3.98443335      7.55618345     -0.46638985     13.70789732
    C     -2.07406365      2.81656333     10.33235515      4.01715904      0.96606870      2.73974563     -4.06155820
    C     -0.80258197      3.32495073     10.71946523      3.98214881      7.58836953      0.69403071      8.31109512
    C      3.08046331      1.20730896     11.38608846      3.99825290      2.55355203      1.83813956      3.32904949
    C      0.97102740      2.68872011      7.53513730      4.01764083      6.29301419     -2.57033407     -5.68831008
    C      2.22957812      2.34122204      8.16973626      3.98874732      5.19175128     -2.80730445      6.13046132
    C      2.83614221      1.08729069      7.76632058      4.00728146      1.91645049      0.28712999      3.24097483
    C      2.21792305      0.21996866      6.82067083      4.00918981      4.28285154      6.59404324     -5.38919028
    C      0.89978473      0.50318987      6.29948323      3.99273276     -6.88750614      7.82551750      4.26938342
    C     -1.10746721      1.74688253      6.90233601      3.99713408     -7.47552522      2.39578440     -2.96207093
    C     -1.39015877      2.77288600      7.92539910      4.01494740    -11.23531586      1.55937097      3.89965049
    C     -0.06487279      3.32573229      8.35208723      3.98243510     -2.58374575      5.47097686      2.46580569
    C      0.21284440      3.63412657      9.69162569      4.02066739      1.53651162     -5.51065543      6.21076880
    C      1.50978400      3.28342532     10.29916831      3.98574910     -0.66879132      2.42491051     -9.01539444
    C      2.53378490      2.69653674      9.52838343      3.99710436     -1.18445810     -0.31834225     -0.24147882
    C      3.50997736      0.62016791      9.02700123      3.99057605     -5.05039659     -0.03934418     -3.07891807
    C      3.54576624     -0.76786195      9.33054600      4.00992836      2.49160686     -5.31353034     -4.72174245
    C      2.89183075     -1.67738258      8.36790747      4.00644150      1.18095661     -0.83565465     -5.33848568
    C      2.25481681     -1.21419095      7.19971959      3.98223549      4.92461413     -1.50936664     -0.90745801
    C      0.97615497     -1.76747576      6.83927639      4.01756153     -6.17100354      8.15176304     -3.66125661
    C      0.12066997     -0.71838040      6.31050213      3.99451951     -4.51635789      9.54014160      1.39372853
    C     -1.23930151     -0.69058422      6.52244959      3.98062171      7.05870060     -0.40118810      3.01808813
    C     -1.85832237      0.56904843      6.80212692      3.99607408      0.09567391      6.61148361      6.98512181
    C     -2.35728447      2.53755722      8.93975348      3.99888705     -0.07213785      3.56280367     -1.10230033
    C     -3.09587137      1.27340049      8.87382625      3.98042650     -5.50364405     -5.13925357     -0.40420098
    C     -2.93091123      0.38942370      7.79498935      4.02185660      5.62374874      5.40000203      2.03058810
    C     -2.95878888     -1.06385507      8.13003821      3.95788282     -5.72142246     -5.96490038      8.20705545
    C     -1.96738368     -1.74693263      7.24736223      4.04762936     -2.59200956      5.43435162     -0.89676360
    C     -1.13526433     -2.73970969      7.85631810      3.96290025     -2.83211855      2.12341491     -4.47613188
    C      0.31576380     -2.73783729      7.66276511      3.99244114     -2.26278844      2.85736514     -2.75646131
    C      0.95337698     -3.25967886      8.83997101      4.03411392     -5.07888025     -0.75550470    -11.00576637
    C      2.19426736     -2.65604532      9.17742545      3.98243526      2.30307279     -4.21078731     -2.41993298
    C      3.35709925      1.63201953     10.04217396      4.00602205      4.78092631      0.54674298     -2.77809852
    C      3.26370590     -1.14713686     10.70765547      3.98713772      0.52077002      3.69792710      1.61032126
    C      0.32800464      1.73629405      6.62287295      4.00265928     -0.32743445      4.91646209      1.76008778
