  120
MD iter: 219
    C     -1.27332080     -0.90630852      3.15190736      3.99273896     -4.72572396      6.32660655      2.32271906
    C      0.17860977     -1.13139851      3.16274823      3.99531959      2.21902502     -3.78027327     -0.51243303
    C      1.08144738     -0.04609865      3.17343200      3.99970169      2.73072063      2.20975592      1.01553964
    C      0.54879832      1.29463971      3.12552593      4.00050261     -8.29201223     -0.38455055     -2.24426826
    C     -0.84805089      1.53441968      3.09077081      3.99904614     10.78423532      3.75460330     -1.05090198
    C     -1.81511988      0.41473496      3.10886409      4.01215242      1.73367525     -1.81265492     -1.28756396
    C     -1.93844078     -1.90202729      2.32605300      3.99139885     -3.76033002      0.05406125      4.81278563
    C     -0.89360913     -2.74815658      1.78647865      3.98770391     -5.05191751     -2.86755157     -1.59792327
    C      0.44628564     -2.30598633      2.32652923      4.02487396     -4.25175993     -3.55863974      4.37416144
    C      1.61791200     -2.27951445      1.55684524      3.98396327     -3.54366359     -1.61400686      0.22831931
    C      2.30797475     -0.02716342      2.37656044      3.99005397     -0.67270636     -7.92957006      4.55407576
    C      1.38628967      2.09761083      2.29111180      3.98856649      3.64245521      0.92909688      5.63682203
    C      0.88821007      3.08827336      1.42162855      4.01453605     -4.23095225      4.44416820     -0.45430651
    C     -0.54862820      3.25239878      1.34754547      3.98730108      7.94249836      3.67700390     -1.80279236
    C     -1.37009934      2.56052783      2.20553760      4.00846333      1.31273613     -3.91386608      1.19956994
    C     -2.68519092      2.10479076      1.68670963      4.00091194      3.69069617      6.39816657      2.68658956
    C     -2.92741776      0.75177479      2.19477678      3.99347440     -4.06337328     10.21778586     -7.07631300
    C     -3.55194816     -0.26525668      1.42715724      4.00236082     -4.42624728     -0.11043959     -0.99144907
    C     -3.04879894     -1.67729975      1.49282090      4.01348866     -4.99674344      1.09952658     -4.72454769
    C     -0.92463900     -3.31034189      0.53836135      4.00520832     -2.05317750      0.83311746      0.84779049
    C     -2.04111460     -3.00270820     -0.32580999      3.98725741      2.48731348     -3.90136777     -5.97975873
    C     -3.08035421     -2.21689332      0.11483251      4.00016014      2.13927375      3.72166769     -1.13635279
    C     -3.67275034     -1.15358901     -0.76014256      3.99081458     -2.02013119      2.16008511     -8.63497746
    C     -3.88709886      0.01401495      0.05565942      4.00013332      2.47219206      3.67727859      1.39336862
    C     -3.62063353      1.37135920     -0.44195980      4.00030531     -5.34928593      0.17843155      0.50974281
    C     -3.04200436      2.42088719      0.37782901      3.98957959      0.96897633      4.36343576      3.54663998
    C     -2.18868894      3.18235684     -0.50043270      4.01548801     12.49475036      0.10447726      2.11892081
    C     -0.91485303      3.59929805     -0.01007479      3.99416172     -0.12818943     -4.94670304      4.30962430
    C      2.52181241      1.27970052      1.82778772      4.01361865     -4.09648930     -1.27525452     -7.28182338
    C      1.24695814      2.20813087     -2.55356978      3.99314797      4.84032981      0.14046611      9.21245905
    C      2.37224010      1.93505189     -1.73215272      4.00607901     -1.02773250     -5.70134574     -4.25970520
    C      2.84211632      0.55648594     -1.66775834      4.00972392      4.65428829     -2.40864422     -1.24028842
    C      2.21653832     -0.44309098     -2.44495900      3.98330784     -0.61964227      1.52185610     -0.92321254
    C      1.16483961     -0.12166536     -3.39151128      4.00698819     -2.87046367    -11.75796971     -3.36068255
    C     -0.80264308      1.38630973     -3.45279411      3.99608588      3.67493925      0.43588246     -8.47661402
    C     -1.06818780      2.61316662     -2.64819556      4.01238591      3.01841748     -2.75645074      2.52150875
    C      0.23381945      3.10618396     -2.11307278      3.98528963     -1.41262714      3.02530012      0.30522687
    C      0.31104987      3.65011507     -0.79204000      4.02099935      4.13436506      1.99452043     -6.04466514
    C      1.39975451      3.27606077      0.10820282      3.97530297     -4.90889500     -1.20020756      3.32859171
    C      2.47009500      2.49553885     -0.39704890      4.00949766     -1.40095541     -3.43154221     -4.98929888
    C      3.25938002      0.29506311     -0.29821398      4.01098538      1.30425128     -3.01627353     -3.18692570
    C      2.99751332     -1.03842055      0.18169657      3.98468562      0.70057832     -9.55053814      3.90175915
    C      2.43459292     -2.08843101     -0.59636058      4.00809859     -2.77120797     -0.89122600     -4.77180154
    C      2.06590417     -1.77622577     -1.92140225      4.00330080     -2.38498363     -1.43352477     -1.00954293
    C      0.81094540     -2.25704647     -2.44285122      3.98570963     -5.10188572     -3.05108141      7.77934211
    C      0.23101679     -1.30246809     -3.38599054      4.01774827     -1.37368278     -2.47154949      2.13444135
    C     -1.13205609     -1.06402533     -3.39910827      3.99502138     -5.29185082     -3.66064289     -0.05537619
    C     -1.67553057      0.31193356     -3.40708104      3.99768259      8.48113711     -0.95078210      0.18973195
    C     -2.24422515      2.61216309     -1.89795534      3.98737705      0.47116627      7.40655786     -1.60156980
    C     -3.16748443      1.50685496     -1.84538580      4.01484687     -0.88059343      2.40996767      2.10956545
    C     -2.88847108      0.32292357     -2.59213537      3.98178671     -6.86119581     -3.79303302     -4.89691156
    C     -3.15669374     -1.03799435     -2.12221781      4.03319348     -4.40791140      2.76741226      3.77260738
    C     -1.99216845     -1.87850550     -2.56109403      3.98787875     -1.98161995      1.56304768      5.52762137
    C     -1.48300672     -2.83949560     -1.70689479      4.00319884     -8.82780962      2.68395295      1.41688399
    C     -0.04646910     -3.02399891     -1.67769001      3.99764886      0.17541894     -0.01324233      0.69151664
    C      0.31841963     -3.35923763     -0.29614472      4.00583843     -2.33013857     -3.93919804     -4.27047055
    C      1.49592934     -2.86769521      0.22230286      3.99834398     -2.60173615      0.13585431     -2.79282118
    C      3.01696381      1.47441918      0.48617034      3.98798289      1.49091695     -5.57150942      3.80507261
    C      2.56502608     -1.17543677      1.57497210      4.01487646     -6.11829223     -4.18332316      1.25110197
    C      0.63632017      1.16564178     -3.44084886      4.00113590      5.77371194      2.48725450     -4.27153633
    C     -0.30615927     -1.51919669     12.93471414      3.99150193      6.34041418     -2.02232456      2.23239959
    C      1.12080396     -1.57316479     12.70468047      3.99680640      4.16973400     -0.07513171     -4.83624799
    C      1.89723149     -0.38447776     12.78861655      4.00699170      4.87630012     -7.24687677      5.20261610
    C      1.18572330      0.91532847     13.05347935      4.02906558     -0.15908580     -5.33235275      0.42503803
    C     -0.24058480      0.93865421     13.19844251      3.97951031      1.34215156     -4.47423798      0.64576568
    C     -0.94533706     -0.30160243     13.18416399      4.00797378     -1.01023291      1.85156269      1.99146663
    C     -0.89141323     -2.54725446     12.06574344      4.00570570     -0.52240764     -1.97689979     -0.53867915
    C      0.13610388     -3.26853095     11.31191315      4.02541987      1.81956465     -3.61765363     -7.76358628
    C      1.40997415     -2.61176727     11.74259167      3.99819598      0.71463762      0.78974773      2.28209437
    C      2.43714879     -2.40849770     10.82169975      3.99153337     -2.24336042     -4.95695911     -3.48385878
    C      2.93737745     -0.20909287     11.82295174      3.99909297     11.69801321     -3.98889731     -5.83689726
    C      1.85191470      1.88414932     12.17000598      3.97979357     -6.32629341      3.79013618      0.33012896
    C      1.08036001      2.91017907     11.56790112      4.01638223      1.48481936      6.15899477     -4.84388577
    C     -0.39437837      2.97268558     11.73948785      3.99816209     -2.77523812      1.22915938      5.83990763
    C     -1.01677366      2.01705979     12.55750631      4.00381905     15.64858149      0.13183726      5.63469279
    C     -2.28180501      1.39684326     12.15438489      3.99393072     -0.28411373      4.87713260      0.30985397
    C     -2.27244267     -0.00858540     12.49389111      4.00665381      1.09292348     -7.11591705     -2.59360283
    C     -2.78788538     -1.00026358     11.65189252      3.99910040     -0.72264874      1.54685180      2.00037826
    C     -2.08053090     -2.23162372     11.37959904      3.98152773      5.03602879     -5.00710572      6.21646643
    C     -0.05042137     -3.61482717      9.91406455      3.98397212      1.66403493      7.49917601     -4.00898378
    C     -1.26267037     -3.29311251      9.31353726      3.99555423     -1.91509775     -1.81898222     -2.92695911
    C     -2.28414936     -2.58523151     10.01906816      4.00471415     -0.97595308      5.89069583      5.86294711
    C     -3.09927262     -1.54399067      9.38973621      3.97390591     -3.84008656      3.85021991     -6.10427650
    C     -3.49063553     -0.56136973     10.38997291      4.04047417      0.81408696     -6.31740329      5.66681693
    C     -3.39931204      0.79236634     10.07783715      3.97312599     -2.10973108      3.55982300      2.16062398
    C     -2.82469269      1.81853267     10.92844033      3.99670110      3.11458043     -2.14586837      7.00129494
    C     -2.25724812      2.81385675     10.06113562      3.98206315     -4.46730136     -4.36194657     -1.83616085
    C     -1.05220929      3.35352423     10.47457139      4.00743944      4.81732238     -0.45658682      3.67058284
    C      2.91719845      1.20982270     11.49111564      3.99369982      1.22047363      2.92933173     -1.21248566
    C      0.96880390      2.61358848      7.46895814      3.98817829      0.97473334      7.26693305      6.74178565
    C      2.19346276      2.32553902      8.13507774      4.01003795      5.49172960      0.34915165      2.69809709
    C      2.88098815      1.03610431      7.91371529      3.98375625      1.60061243     -1.95729575     -1.59410240
    C      2.40431969      0.07066595      7.00293554      4.01132834     -1.59966737      7.66119684      3.47737069
    C      1.06156629      0.39188263      6.30745398      4.01952736     -2.12553354     -0.71824221     -4.35623423
    C     -1.04356250      1.67994822      6.73784247      3.99835295     -5.12733946      0.42400739      3.51548237
    C     -1.37924118      2.73113140      7.69510273      3.99157357     -4.21126163      0.69017771      6.80960466
    C     -0.10493776      3.31184035      8.14943681      4.00088859      1.59772347     -2.19165669     12.13475587
    C      0.10024481      3.58996414      9.50363925      3.99977502     -0.80698679      5.88504485     -0.37794487
    C      1.34015189      3.27361414     10.16712145      3.99069618      8.21250276     -4.37437247     -3.16892233
    C      2.43978339      2.66106357      9.50856889      4.00158332      3.30869747      5.13726203      0.79778893
    C      3.51305953      0.59454094      9.13453570      4.00848275     -2.48717191      0.05839098      4.08658155
    C      3.50054137     -0.77797543      9.48528945      3.99292872     -1.08639203     -4.92375464      2.19084328
    C      2.96020294     -1.78981309      8.58369328      4.01055761     -2.38763551     -1.09264167    -13.44443581
    C      2.42082401     -1.33648285      7.34430601      3.99430301     -1.42332778      5.29107642      3.53469651
    C      1.10619310     -1.87782846      7.02080081      3.99550494      7.71483842      0.78998517     -3.46683136
    C      0.29406767     -0.82923814      6.41041136      3.97993490     -6.41012124      0.26851271     -4.70123482
    C     -1.08793509     -0.82250122      6.53775620      4.01527386     -3.61793672      1.47891248     -2.26257782
    C     -1.73818699      0.48911450      6.74483596      3.98969357     -3.90075686     -1.01689040      2.70910661
    C     -2.46614995      2.48722565      8.62304884      4.02470211     -0.43213330     -1.23633247     -1.86487724
    C     -3.16792359      1.17552964      8.65205444      4.01025471      2.64731445      4.13959599      4.04788702
    C     -2.82526821      0.24807829      7.68160106      3.99344611      1.99221291      8.86723971      0.28901625
    C     -2.84733407     -1.17793057      8.07915202      4.01006107      2.64436071      6.49776787      8.69609908
    C     -1.77503331     -1.82124930      7.33995097      3.99222346     -6.40619607     -3.13905935     -3.83449517
    C     -1.00618416     -2.86848648      7.92036863      4.01871677     -4.36133360      3.96666055      1.33501331
    C      0.44417929     -2.88420184      7.76114728      4.00935801      1.12758009      1.06935828      1.89177318
    C      1.03948451     -3.36057314      9.00562958      3.98642244      0.52926910     -4.61078208     -2.57289757
    C      2.25699097     -2.81748452      9.43943469      4.00945789      1.07230493      5.10220390     -1.98946440
    C      3.21997940      1.61294998     10.16016705      4.00622408      5.04404111     -1.13238367    -11.89362184
    C      3.18465970     -1.18575285     10.83827283      3.99285063     -2.20491115     -3.68391656     -2.13067197
    C      0.41630047      1.63267887      6.52903084      4.00165429     -2.37347351      7.09994669     -5.36230619
