  120
MD iter: 299
    C     -1.47171800     -0.81368957      3.10104652      4.00023668     -5.00917307      5.29194100      2.46160841
    C     -0.08617573     -1.16771644      3.15863027      3.99327594    -10.02575482     -1.20246212     -1.77809808
    C      0.91762861     -0.12065134      3.20468982      4.01043671      1.50351328     -2.00570248     -3.54297003
    C      0.54407077      1.29480642      3.13678001      4.01979859     -2.19758165      3.05910701     -2.00006971
    C     -0.79708249      1.59408312      3.02277011      3.96699167      9.33138884      3.80654494     -6.25956268
    C     -1.82838908      0.58416926      3.10171877      4.00517776     -5.01950393     -0.96015862     -2.85599989
    C     -2.13625900     -1.81371792      2.26773881      3.99597621     -2.61776851     -7.12092955     -5.46760657
    C     -1.12007315     -2.79398382      1.82891354      4.01017163     -5.84100647     -5.82003771    -11.77449735
    C      0.19033899     -2.31970363      2.35189185      4.00071808     -0.66142391     -0.28484525      2.99176483
    C      1.35014379     -2.53164511      1.55200659      3.99672240     -2.12221717     -1.67485631     -0.58749666
    C      2.10673471     -0.35025212      2.37609082      3.97091862      0.38459123      2.95973849      5.22689958
    C      1.48301668      1.91233052      2.22148347      3.96231249      2.23761438     -6.04210973      0.12257527
    C      1.04507101      2.93700430      1.37995690      4.02527478      3.40317430     -0.82043196      1.40692341
    C     -0.37591620      3.29447461      1.32786866      3.97670977     10.38763248     -1.66339093      1.24179717
    C     -1.27259165      2.66451413      2.16560563      4.02135778      1.46138164     -3.96070302     -9.32394006
    C     -2.58358286      2.24778580      1.64988656      3.99322450      6.77035834      1.22342942     -4.49522659
    C     -2.95585791      0.94807138      2.24415228      4.02121622      3.71212008      0.76277401      3.14093725
    C     -3.58559559      0.02328133      1.38009410      3.97229096     -4.09888416      2.50598584     -1.02597440
    C     -3.18977202     -1.39958130      1.43324547      3.99825706     -1.50271151      4.93219064     -0.87563651
    C     -1.18767860     -3.28804765      0.51657585      4.00644927     -8.93900207      3.81446664      8.82757225
    C     -2.24918660     -2.84132928     -0.35720553      3.97922168     -1.60083309      1.43715771     -1.06496141
    C     -3.26364820     -1.97039596      0.09427741      4.02653519      2.32872294      2.68605445      8.13281466
    C     -3.64915455     -0.86992678     -0.77522832      3.97919745     -5.55415529      1.04688519      0.79538224
    C     -3.92217445      0.33271316      0.02871925      4.03642099     -4.55173559      8.58839861     -0.35511596
    C     -3.53881332      1.58784764     -0.53382473      3.96680373      0.68540618      5.33943725     -3.18702898
    C     -2.90682383      2.53920693      0.32215771      3.99931939      1.96466502     -3.88011518     -0.55925373
    C     -2.02223938      3.32031924     -0.52419322      4.01749782      9.84308263     -0.91097053      4.46466069
    C     -0.75663603      3.68720853      0.01075813      3.99966298      0.75041633     -1.48808943     -1.13146798
    C      2.54780925      0.99833512      1.83470160      4.04697001      0.94770951     -0.28291596     -1.53795332
    C      1.39195940      2.03493131     -2.61920078      3.99426195      5.83443001      2.78578696      0.60543293
    C      2.40968320      1.65588956     -1.76401598      3.99605469      3.51879946      1.44665255      5.91537358
    C      2.81293898      0.25309886     -1.69908669      3.97444514      3.52641823     -1.53217343      3.31318642
    C      2.23074447     -0.73407702     -2.49299204      4.02195533     -2.65424991     -6.46959405      4.02000775
    C      1.08731467     -0.36117231     -3.37836788      3.99413528     -1.28317054      4.14271117      0.84521181
    C     -0.75052710      1.36496879     -3.45546057      3.96464474     -8.56568914     -8.88145212     -0.64599002
    C     -0.89674658      2.63399480     -2.73468802      4.03120401      5.07033177      2.48552008      0.28011308
    C      0.39055331      2.97839824     -2.14527016      3.99054598      0.12212309      1.49369717     -3.95429792
    C      0.43610816      3.50649824     -0.80157531      3.99619927      5.63861197     -0.25812020      5.22245519
    C      1.53397255      3.16654794      0.03546002      3.99431249     -1.00137666     -6.61099632      2.47718239
    C      2.53713493      2.22508180     -0.38527593      4.02426553      0.89649192    -14.15367937     -4.98193670
    C      3.22431351     -0.07639717     -0.34658660      4.02826273      0.46394124      1.80848447     -4.98000343
    C      2.89140344     -1.34654664      0.24452620      3.97978286     -6.76906009     -3.12748026      1.88299801
    C      2.21387011     -2.35994692     -0.61661918      4.00698075     -4.33557611     -0.46662777      0.55903115
    C      1.86834471     -2.04995208     -1.94997224      3.99243957     -4.22170184     -7.54776314      1.08684765
    C      0.57570689     -2.48398812     -2.53807402      4.00366803     -8.95726978      0.87330386      8.50770423
    C      0.12775485     -1.40289133     -3.38371880      3.99022483     -7.40830282     -0.94610029      5.12606499
    C     -1.25962992     -1.10473109     -3.37381936      3.99647490      0.28712058     -3.35804819     -0.30435179
    C     -1.66953070      0.31996847     -3.49426952      4.04126757      3.22017583      4.03501930     -0.53865834
    C     -2.02716082      2.74992814     -1.88736885      3.96205855     -1.23353339     -5.60291895     -0.43328803
    C     -3.06163495      1.70740163     -1.89053759      4.05466565      0.84219592      7.40702665     -0.13875828
    C     -2.79991275      0.48105905     -2.59041221      3.95643975      6.18835815     -1.37197722     -6.53786092
    C     -3.13550739     -0.80083378     -2.08063061      4.00929349     -0.94497788      2.37681563      2.69367049
    C     -2.24153529     -1.80409614     -2.53265536      3.99465258      0.63616021     -0.87377126      3.11416035
    C     -1.74838585     -2.79812862     -1.70595513      3.99681776     -2.11907235     -5.47254481     -5.66039470
    C     -0.35046922     -3.14779502     -1.70502825      3.99986568     -0.41850705      2.41847450     -1.99557619
    C     -0.00673427     -3.41449504     -0.32911590      3.99360105     -6.28052019      3.71726067     -1.30141482
    C      1.28466252     -3.08208539      0.21855647      4.00356190    -10.03477838      4.92330770    -11.31437668
    C      2.99663151      1.11833493      0.50189326      3.96925832     -1.06795218     -4.65468778      1.69500417
    C      2.39572173     -1.46798017      1.59837432      4.01785210      2.69921674     -2.37913500      5.44466317
    C      0.70679801      1.02342958     -3.40404402      4.02011878     -2.76135674     -4.29620177     -4.78808821
    C     -0.05664688     -1.64411197     12.85062286      3.99241134      4.75033614     -4.73174363     -0.10021151
    C      1.34742361     -1.70944086     12.58565728      4.01819242      5.39887546     -2.25707524     -3.80043116
    C      2.07696660     -0.49625786     12.67983012      3.98387391      2.51510460     -6.00147762    -11.99414263
    C      1.48420009      0.77316957     13.04805229      4.00367994      5.69534282     -5.40280801      0.04928198
    C      0.09827872      0.84732204     13.32604173      3.99621726      3.72973159      0.90065605      1.03059204
    C     -0.67995752     -0.42208513     13.24862632      4.00474972      5.54689920      4.30519620      5.98605391
    C     -0.78361310     -2.59183434     11.96696687      4.01542612      3.31504904     -0.62479161    -10.71997536
    C      0.19245564     -3.24987845     11.09397087      3.97844701      3.19328183      2.89519862     -5.39227219
    C      1.46120313     -2.65665694     11.48888986      3.99525593      0.64994690      0.29273519     -3.50191635
    C      2.44169038     -2.37515056     10.54062443      3.99164405      2.74285196     -2.84597942     -0.02131150
    C      3.11152826     -0.30747889     11.67600744      4.00016392     -0.94207134     -8.21638273     -7.70506053
    C      2.10108095      1.78284467     12.20936221      3.99542828      6.02649154     -3.07696416      1.69696943
    C      1.31681139      2.82629607     11.63665177      3.98958331     -2.65913227     -1.89646993      3.40359123
    C     -0.13304762      2.86622990     11.96677829      3.99548128     -1.12337956     -1.02256459     -2.39070475
    C     -0.76811687      1.89888857     12.78798557      3.99974805      7.95743916      4.61384278     -3.06651373
    C     -2.01087375      1.32485784     12.38194426      3.98491382     -1.85549108     -1.42154990     -3.21663006
    C     -2.01395340     -0.15152839     12.71509331      4.02575820     -1.25683156      1.94815692     -5.83056346
    C     -2.66026231     -0.98307538     11.75115465      3.98501050      3.36004150      5.85462278     -0.07509567
    C     -2.04173046     -2.24778456     11.45231053      3.97010122      0.68038574    -10.65386688      0.27069186
    C     -0.03732398     -3.58012685      9.74400383      4.03062028     -8.34641765      2.02439548     -3.37940648
    C     -1.34445407     -3.17656473      9.20143483      3.96633835      5.17493628      3.06450489      0.17557906
    C     -2.37900960     -2.60492951     10.11286045      4.05593401     -6.01010253      1.97166039      8.85343830
    C     -3.15670342     -1.45834386      9.48406312      3.96616466      7.24276188     -2.41883404      0.89734225
    C     -3.34833562     -0.49500995     10.55744460      4.02233150      8.21130787      4.34385228      7.89079371
    C     -3.33888832      0.91116539     10.28092431      3.97658318     -0.94935687      3.56092010      2.90708474
    C     -2.66056625      1.78573279     11.19542452      4.01171557     -0.10804627     -4.95128800     10.41600005
    C     -2.07548056      2.77937025     10.36970405      3.98050960     -3.75892014     -2.48212862      0.23023185
    C     -0.81741939      3.36722739     10.75683674      4.03841944      1.92983678     -0.47265505      4.29785740
    C      3.15653134      1.13448082     11.41547815      4.02482069      3.03230689    -11.09281864     -0.25744844
    C      0.90054286      2.75029164      7.57917352      3.98056515     -3.10393506      1.94843383     -1.39698371
    C      2.20851744      2.40252217      8.09530700      4.03358652     -1.05611959      7.37145843      2.19705654
    C      2.86777377      1.12844145      7.78966078      3.99453654      1.85791275      6.77400665     -1.04280181
    C      2.25171814      0.22313815      6.92706873      3.99292217     -7.09392753     -0.01989852      6.59902657
    C      0.96236079      0.61882438      6.37990068      4.00466064     -0.56890084      0.64111953      1.37578462
    C     -1.17823629      1.90447297      6.89376839      4.02233557     -2.83836139     -2.84018924      0.39035056
    C     -1.35521017      2.81970096      8.00329880      3.98813560     -3.83398025      1.25129227      8.27268418
    C     -0.06376927      3.33644999      8.39815164      3.99888549     -1.77649561      1.75824952      6.05969721
    C      0.17140623      3.53880092      9.72236559      3.97625433      3.71313528      2.81389852      7.77352305
    C      1.51523421      3.27152572     10.32561132      4.01711786      0.42723665     -2.35459342     -9.46011646
    C      2.47434487      2.65603724      9.51563314      3.98578786     -3.25284783     -3.80381880     -0.67494279
    C      3.54750475      0.65343248      9.01390292      4.01001315      6.28415634      6.54093015      2.91325848
    C      3.51985040     -0.76700070      9.23167354      4.00054528     -4.57956953     -0.73454521     -1.96733813
    C      2.84316128     -1.68024296      8.31963310      3.97534912     -3.70429074      1.69673634     -4.68197327
    C      2.23677563     -1.20133988      7.17645981      4.00091877     -4.38951839     -2.88166947      4.15503907
    C      0.92378689     -1.68084232      6.80391916      3.99275791     -2.59314169      0.88826228     -3.67090459
    C      0.10175445     -0.58757295      6.28836636      4.00023886     -4.07160359      7.84435314      0.36949297
    C     -1.28416886     -0.55355495      6.55346738      4.00989820      5.77317578      7.56207566     -0.68396054
    C     -1.92775136      0.67601778      6.92473096      3.99171570     -5.81475178      8.76844015      5.37955888
    C     -2.34153948      2.52003024      8.96401803      4.00929994      9.53695021      5.06630248      2.36831604
    C     -3.18379912      1.33113511      8.92476837      4.01965223     -1.94141568      2.36360800      1.39213059
    C     -2.93807995      0.34930701      7.94137249      3.97465960     -4.14528917     11.13354825      4.49015920
    C     -2.98924143     -1.07344388      8.16460348      4.03068934      1.52356845     -1.80467073      9.98637743
    C     -1.88277054     -1.64879900      7.36788143      3.97591973      5.92855755      7.32040577      2.66756620
    C     -1.15572945     -2.74890324      7.85187858      4.00804527     -2.26628388      0.32729485      6.06767380
    C      0.28532622     -2.74807140      7.53829806      4.02269771      5.26185901     -4.94976674     -0.01670191
    C      0.96208531     -3.21346961      8.73486266      3.96486034     -1.07318369     -0.26314353     -8.96070112
    C      2.23320891     -2.73629944      9.10987357      4.04031795      4.99986550      3.58208095     -4.62685605
    C      3.28231010      1.59426548     10.06185707      3.98352826     -8.59575260     -1.70721466     -6.91579109
    C      3.27700208     -1.20751609     10.60226949      3.99699764     -1.47089755     -2.44644193     -0.62665518
    C      0.27758398      1.82811630      6.65850591      3.99912615      3.86336493      0.69993069     -0.58997991
