  120
MD iter: 259
    C     -1.31220140     -0.84358922      3.15852663      3.99998345      1.25738834      6.92162785      4.23380852
    C      0.06649747     -1.16028411      3.15326882      3.98694538     -5.28532416      1.17936493      2.16538932
    C      0.93703224     -0.05176019      3.10854353      4.00193961      3.60976246      1.73003764     -2.49472900
    C      0.49839468      1.35268089      3.10724615      4.02498049     -9.48712608     -8.22490859     -0.72020900
    C     -0.86891192      1.61424467      3.04441238      3.97789374      6.81602023      3.56029293      4.93128583
    C     -1.81472683      0.51414246      3.09188151      4.00340600     -0.40229569     -2.89489942      2.86953246
    C     -1.97190925     -1.87591469      2.30992334      4.01706488     -2.69924428      4.89620506      6.20643477
    C     -0.92708259     -2.83653641      1.82960374      3.99145458      0.32103817     -0.34670638    -10.30994206
    C      0.35630043     -2.35464937      2.37116469      4.00834665      1.47692702     -6.54735269     -2.07192495
    C      1.49806193     -2.42466138      1.57429691      3.99072160     -3.30248463     -5.26276825     -4.44827131
    C      2.12053963     -0.16176307      2.31834160      3.96680502      6.55624043      4.10469293     -3.27961571
    C      1.40496363      2.05410305      2.24301155      3.96258134     -5.46330411     -1.27691240      3.88276517
    C      0.93818262      3.11137619      1.46043925      4.03353414     -4.28975234      1.65413489     -7.38255998
    C     -0.50736374      3.40480749      1.40271041      3.98851819      7.79184842     -2.01811984     -3.82748283
    C     -1.36213391      2.66223417      2.18503220      4.00040576     -4.15481824     -1.14568462      1.42417042
    C     -2.61194758      2.18465618      1.64711572      3.99487615     -0.72088489      6.42620301      1.98959198
    C     -2.89554945      0.83207972      2.24342452      4.00755069      3.04319020      7.96243185     -1.23660520
    C     -3.50164128     -0.11975506      1.40195218      3.99290637     -4.02830983      2.28986944      0.87494929
    C     -3.01475711     -1.50454419      1.42859265      4.00635553     -6.94238025     -0.05223210      2.18485810
    C     -1.02324431     -3.34386267      0.55092743      4.00858831     -2.91834816      2.19212203      5.19505550
    C     -2.13343040     -2.90499896     -0.34497978      3.98926201     -4.41314927      2.92626149     -9.84320200
    C     -3.10675713     -2.02552937      0.06000873      4.00122194     -1.55525616      2.21942402     -3.90295855
    C     -3.61530830     -1.00257082     -0.75093091      3.97270990     -2.17598908     -3.43123491     -3.13169088
    C     -3.92649474      0.15353550      0.02820059      4.02502707      5.05013005     -0.42867749     -5.32323730
    C     -3.63398610      1.45232495     -0.51901009      3.97963305      1.83009365      5.47531214      4.11380863
    C     -2.99199192      2.43908456      0.35099319      3.99825642      2.54234444     13.02054565      2.94975798
    C     -2.08597179      3.20138651     -0.48561100      4.01111539      8.67047694      8.11377755      1.00737804
    C     -0.83540509      3.68481874      0.00952363      4.00200609      1.23393556     -4.64146931     -3.29179565
    C      2.46293100      1.14515974      1.79330618      4.04028396     -4.10927075     -0.22123625     -7.72257057
    C      1.34094092      2.11358876     -2.61233914      4.00384113      1.38858318     -7.97240714      4.97738780
    C      2.38849869      1.74342456     -1.76052051      3.99924879      0.96322450     -1.65129192     -0.17954172
    C      2.87498140      0.35302546     -1.71414282      3.98989053     -0.54610352     -6.64474643      0.57456400
    C      2.27198836     -0.62011390     -2.51137936      4.00245307    -11.70526895     -4.49729659     -0.25869539
    C      1.16455214     -0.20180714     -3.35688389      3.99102759      8.87338608     -0.13605233     -0.05712196
    C     -0.74360802      1.35508443     -3.45458369      3.97639690      0.77337653     -5.38836998     -6.09120170
    C     -0.94103854      2.62865936     -2.62069996      4.03171496      5.45155392      5.10347363      6.37390538
    C      0.30932169      3.00502134     -2.07849143      3.99256765      2.12501162      2.67209357     -0.12812229
    C      0.33330364      3.53486676     -0.74138948      3.99106439      5.08691570      2.99362799     -1.14737156
    C      1.43516386      3.16967005      0.08092115      3.99753361     -3.00854226     -7.11808038      6.88439127
    C      2.43053487      2.26031044     -0.41970561      4.00845613      3.97273581     -4.53015880     -1.20621390
    C      3.23474482      0.06592519     -0.34367417      4.03013627     -3.44234937      1.03169293      1.83860745
    C      2.90937814     -1.22590261      0.18740169      3.97403967    -10.15552149    -14.24855261     -0.60013008
    C      2.29129000     -2.26584553     -0.61470724      4.00407254      0.76946884     -4.63580856     -3.22960137
    C      1.98033782     -1.95111880     -1.95618239      4.00178476      0.18953301     -9.60519126      1.31372840
    C      0.68650815     -2.33384925     -2.46671884      3.99206242     -5.12346390     -3.93317432      5.05694589
    C      0.18265471     -1.28335050     -3.33522396      4.00739764     -1.80188329     -6.17047272     -4.21823184
    C     -1.18195021     -1.03898159     -3.39223777      4.00239182     -2.48538960     -5.21750681     -2.88461354
    C     -1.69577684      0.35344522     -3.50899325      4.03094678      7.67417620      7.01641188      0.68044643
    C     -2.10484536      2.64758156     -1.81471392      3.96976816     -7.91481316      2.52860120     -4.05882172
    C     -3.15429268      1.60424640     -1.88495111      4.04343885      1.17565477      5.69696800      3.99859315
    C     -2.88560804      0.40218841     -2.62426990      3.96510064     -3.74051498     -3.23350471     -4.22473235
    C     -3.11816179     -0.91661434     -2.07369531      4.01516816     -7.51897267     -1.09105005      4.51554598
    C     -2.09891084     -1.78834667     -2.52631235      3.98327276      6.36229467      2.18509980      0.85665018
    C     -1.62190787     -2.80209553     -1.71087313      4.01171105     -1.11357630      5.64373937     -1.06608750
    C     -0.20413176     -3.07479266     -1.69612608      4.00169258      2.07092971      4.23873439     -0.87479741
    C      0.15563064     -3.40078150     -0.30625087      3.99517054     -3.27249316     -4.47966203      2.88281669
    C      1.36734884     -2.97813792      0.23914960      3.99858341     -5.39126276     -3.27971169      1.58168806
    C      2.93181417      1.24489932      0.46377465      3.96988590      2.40101051     -4.05270276      1.18583413
    C      2.45608747     -1.30706539      1.57799167      4.03450495     -4.19547856     -2.42963531      0.37906812
    C      0.69543465      1.09916589     -3.42162746      3.99870828      0.22958226     -4.13026348     -1.68994127
    C     -0.23139580     -1.61530440     12.92720312      3.98610141     -3.08629058     -6.34955238     -1.96301478
    C      1.19900589     -1.67108375     12.73628922      4.03065150     -1.11067327      3.25916769     -2.20550455
    C      1.92225266     -0.45810219     12.69953116      3.98048594      9.22460553     -4.41202822     -4.47342502
    C      1.30938979      0.81914962     13.01234810      4.01645731      4.69184845      3.96070249      1.51413832
    C     -0.10069706      0.84216527     13.20229686      3.99077744      3.90029164    -11.43147083      4.90805741
    C     -0.86097769     -0.40015973     13.18431012      4.00104109      0.01040854     -0.84680376      2.44840294
    C     -0.84269034     -2.53789137     12.01979899      3.99654916      4.02852023      4.97915863      3.86449251
    C      0.22313197     -3.14483820     11.22736774      3.98604377      3.47916147     -3.13197062     -5.56416436
    C      1.45632209     -2.63128297     11.64191352      3.98650423     -0.08413402      1.17428854     -0.68085278
    C      2.49867264     -2.38915054     10.73078349      4.00474793     -0.97930375     -2.75750781     -9.49044473
    C      3.00012843     -0.24546458     11.71501299      3.98692946      5.08504234     -1.88040259     -6.37322975
    C      1.98924198      1.81680611     12.21080055      3.99328134      9.93133330     -2.99757845     -0.40338053
    C      1.21702170      2.87031456     11.66423265      4.00956784      4.47789490     -1.52240700      9.74638013
    C     -0.20686105      2.90805459     11.86418196      3.97676464      0.08453550      2.29513792     -0.02983914
    C     -0.85850191      1.92368833     12.60508954      4.01522045      9.70124457      6.36637610      1.93555791
    C     -2.15646242      1.28311396     12.24182738      3.98681461     -6.03009870      3.24338718      0.16170688
    C     -2.14412483     -0.12341220     12.55827072      4.00444974     -0.54852995     -3.02947034     -2.92968097
    C     -2.76533378     -1.00288868     11.67171095      3.98317463      4.64245053     -3.57447763      5.29545343
    C     -2.12817053     -2.28440028     11.44690446      4.00689516     11.97387608     -4.34012952      0.80864004
    C     -0.00880666     -3.46441682      9.87042537      4.02762536     -2.51705116      4.57240311     -5.66329219
    C     -1.29077290     -3.13678391      9.26888784      3.97126924      3.07418026     -6.54847595     -2.25556606
    C     -2.40495983     -2.60185160     10.03508925      4.03485391     -4.88010831     11.46991557     -2.58342638
    C     -3.09749207     -1.50779964      9.40118437      3.96312378     -2.56379786      6.72156622     -5.83885665
    C     -3.39666282     -0.50617629     10.43576257      4.02750305     -3.95187512     -7.21869737     -3.78215485
    C     -3.37698914      0.86168473     10.12241807      3.97760710      4.71838635     -1.34463472      0.49614822
    C     -2.78891686      1.81572384     11.07301546      4.03368814      6.99915245     -2.22116084     10.99444538
    C     -2.08739270      2.83238695     10.22146962      3.98924488     -4.07968205     -5.22752320      0.99224952
    C     -0.86601088      3.39149193     10.66282714      4.01622844      5.96421484     -4.58868992      1.57015819
    C      3.01722742      1.16442034     11.41156572      4.01373173     -5.21187956      4.70816257      8.55609834
    C      0.96923827      2.61147119      7.48360591      3.99943686     -6.12758649      0.64734624      0.15668702
    C      2.24532118      2.38004055      8.09914104      4.01207978     -3.32647177     -1.41192755     -0.57216003
    C      2.85344943      1.11594694      7.83134715      3.99123173     -1.82443199     -0.93433598      0.45342476
    C      2.23851645      0.13730486      7.00429910      4.00298069      2.49120225      4.03815446     -2.77043770
    C      0.97397873      0.42962929      6.32496029      4.00453317     -4.98195857      4.99390412     -8.71645621
    C     -1.10647759      1.70261448      6.88216372      4.00052163      2.07000559     -1.04527768      3.95427621
    C     -1.28324625      2.66830814      7.94963564      3.99676356     -3.99517516      4.45412030      3.72861321
    C     -0.04096078      3.29679041      8.35800342      4.02600675     -2.43458396      3.86896225      6.27714933
    C      0.17675914      3.59947397      9.70745058      3.97033485      1.11398188      3.29724202      2.66721743
    C      1.46011296      3.33430091     10.27515640      4.01446636      3.72998761     -3.34438035     -0.48288747
    C      2.42438268      2.68653004      9.49246778      3.98195735      5.00936502      3.18119808      1.44316410
    C      3.53235303      0.69879051      9.01437917      4.02081227      1.69796498     -0.15845131    -10.02201253
    C      3.49380807     -0.68783622      9.31713175      3.98729849     -2.84017914     -5.17799020     -4.78369665
    C      2.83565221     -1.65898948      8.53483894      3.97579822      1.06137087      6.04338960     -9.27676483
    C      2.23990676     -1.30230472      7.31728482      4.02166935      4.76982894      1.94181357     -1.77288580
    C      0.95246658     -1.85174358      6.84287918      3.98890510     -0.88516668     -1.08479304      1.36238413
    C      0.14880260     -0.80069712      6.23082898      3.98951073     -3.99148561     -1.96345702      3.13181374
    C     -1.22343153     -0.73977712      6.43863653      4.01086510     -0.73521299     -4.84631037     -0.06002026
    C     -1.89540325      0.57517130      6.78212345      4.00369227     -4.95137211      8.60567548      3.49782988
    C     -2.29977183      2.44282783      8.87127855      3.99497422      7.00287581      7.87475476      0.74153326
    C     -3.12129002      1.24815294      8.77040157      4.00652915      3.44731889     -3.92991797      9.16149109
    C     -2.90317879      0.31704249      7.77898195      3.98364074     -4.58071505      7.56723818      1.71772350
    C     -2.90889566     -1.11961295      8.09212787      4.02888941     -4.39095555      1.10080347     10.84541882
    C     -1.81935196     -1.71465266      7.33394257      3.97043805     -9.47051219     -1.62632129     -3.29650455
    C     -1.06550419     -2.78581091      7.90735184      4.02434045     -1.33470319      2.50959056     -5.75057374
    C      0.37519728     -2.85487229      7.65377923      4.01040321     -2.48077144      1.20303552      7.42318498
    C      1.03470296     -3.17323470      8.89835836      3.98276205     -2.35326350      1.42797983     -1.83708986
    C      2.25720576     -2.68329003      9.35527537      4.00870442     -2.38390476      7.74776169      5.06507819
    C      3.20144470      1.62743833     10.07801645      3.98754461      7.37246355     -3.05810956      2.02566237
    C      3.33129429     -1.15337013     10.70963171      4.01798430     -2.44154562      0.68717968     -0.31203933
    C      0.34839826      1.63055519      6.62994569      3.98918621      2.47664639      5.21893359      0.71884214
