  120
MD iter: 199
    C     -1.26743170     -0.92892926      3.12251234      3.99732990     -4.87981011      4.85921202     -0.96395855
    C      0.18195537     -1.06456879      3.16102015      4.00711915     -2.90898187     -3.66209698     -0.84309007
    C      1.05646255      0.00566901      3.14270832      3.98833637      2.37414502     -5.39923986      0.18717837
    C      0.51567495      1.34896619      3.11055758      3.99791082     -8.96198771     -4.92705606      7.42549213
    C     -0.87816091      1.54538916      3.09296269      4.00036936      5.37723614     -4.36490206      1.36242929
    C     -1.78204778      0.39304313      3.13227135      4.00472939      3.72504346     -5.04750121      1.37461165
    C     -1.83131097     -1.94527591      2.28101543      3.98719473      0.63608932      1.84560314      0.79213680
    C     -0.74630274     -2.80898864      1.80912494      4.01574058      3.17420069      2.12384106     -1.56845458
    C      0.50101904     -2.21712537      2.33944822      3.98612904     -7.98445310      3.01605056     -1.55911683
    C      1.67634787     -2.28338179      1.59487049      4.00448898     -3.88676183      0.43827098     -1.36549918
    C      2.26846614     -0.02321231      2.35949809      3.99974893      3.00985164     -5.12594037     -4.45774322
    C      1.38977448      2.16152068      2.28465556      4.01303263      6.10403871    -11.91397815     -2.63025658
    C      0.81859558      3.09832989      1.38833359      3.98356632      3.39415529     -1.66342574     -2.27584713
    C     -0.63998547      3.30024449      1.39714614      4.00284033      7.92042982     -1.81609191     -7.27204801
    C     -1.45998506      2.52778683      2.19915295      4.00019434     -6.01712584     -1.24181936      3.21967291
    C     -2.70782964      1.97283933      1.64622771      3.99484199      0.37932255      1.34002119      2.18946721
    C     -2.91338665      0.69408960      2.25938538      4.00477600      1.69795700     -1.64434961     -0.29737296
    C     -3.47312854     -0.28000052      1.43235802      3.99081130     -0.00526474      1.58783335      0.53920201
    C     -2.93742696     -1.64800007      1.48144056      4.01127404    -11.50052676      5.69488626      1.84943782
    C     -0.82694113     -3.29530564      0.51098984      3.99609990     -6.87353419     -2.01175570      3.87626292
    C     -1.99305965     -2.98448718     -0.35644448      3.98871414     -2.94660165      0.09615073     -4.67837032
    C     -3.03864683     -2.22318898      0.12752068      4.01256405    -13.96646086      2.96070929      6.52785288
    C     -3.56265075     -1.16776168     -0.71892590      3.99815672      0.43137508     -0.68669683    -10.57536727
    C     -3.87072522     -0.05106096      0.07396449      3.99740279     -2.91197743      9.85402559     -2.19839551
    C     -3.66694333      1.26360390     -0.48724994      4.01720357      4.25383253     -2.71057840     -3.18301210
    C     -3.06218520      2.27780097      0.34052885      3.99036409     -0.29593056      4.03680623      0.08370747
    C     -2.22042203      3.16369443     -0.46620213      4.01307865      4.16810530      8.94261159    -12.32460894
    C     -0.98407917      3.64924145      0.03473763      4.00427262     -2.28331147      0.19682452     -3.35417528
    C      2.53477584      1.31199686      1.85131472      4.00932692      7.41325372      6.08759197     -2.20378587
    C      1.25143798      2.30029213     -2.58752614      4.01541338      6.91081578     -7.37040856     -1.65774056
    C      2.32610010      1.96363858     -1.73910891      3.98746281     -1.78870158     -4.09727281     -5.75941484
    C      2.83838203      0.63260530     -1.67602231      3.99967809     -5.99148150      1.98150149      3.64462599
    C      2.31359040     -0.39951936     -2.48863952      4.00685549     -1.03478320      2.37964146      5.00273425
    C      1.17511091     -0.07731833     -3.31230607      3.99453213      0.58803347     -6.21299641     -1.35273168
    C     -0.80229928      1.40168059     -3.38641027      3.99566203     -5.66092520      1.21383999      4.16130415
    C     -1.12524458      2.60741271     -2.59945464      4.00211817      1.61117299      3.85277325     -2.99741190
    C      0.14391093      3.08417797     -2.11925979      3.98429408      1.82334864     -2.62212372      2.71353309
    C      0.19802953      3.56950659     -0.81220175      3.99118026      7.55776969     -2.88875418     -5.77551250
    C      1.36049046      3.34640570      0.06675095      4.01449691      6.49162008      2.09885728      2.36108665
    C      2.43557161      2.52863569     -0.39347861      4.00233879      8.84455878     -2.13394275      1.06877932
    C      3.24384811      0.33875273     -0.30472408      3.99405576     -1.90304288      1.44414996     -3.34315024
    C      3.07371224     -0.97973055      0.19698846      4.01149327     -5.15922964      2.84119281      4.94826278
    C      2.45551979     -1.97645274     -0.62273732      3.99734343     -0.44180735     -5.82084980      1.02940709
    C      2.06139867     -1.73325925     -1.96160819      3.98961626     -2.51175497     -4.90330069      3.33442329
    C      0.83725177     -2.31315850     -2.50915548      4.01254261     -2.29461419     -1.54345877     -2.14535158
    C      0.24539496     -1.23220238     -3.36478004      4.00744676      8.24348448      7.70593740     -5.95310997
    C     -1.11542662     -1.03237753     -3.39262781      3.99073955     -1.46398311      2.70973387      0.80118766
    C     -1.66753941      0.30291843     -3.43895584      4.01655666     -3.21094643      0.56111098     -2.32803963
    C     -2.25565150      2.61540969     -1.82639571      3.99222240      6.75690379     -0.51417087      0.28693376
    C     -3.12530082      1.43324184     -1.82346074      3.99533197     -3.84690797      2.44324571      1.64123605
    C     -2.86986260      0.29342018     -2.57891137      4.00137124      0.34071610     -2.48639141      6.69916214
    C     -3.02615088     -1.01154201     -2.02212903      3.98510556     -6.80402666     -2.52861757      0.70822269
    C     -2.02365220     -1.87461672     -2.56047417      4.00486713     -2.73471068     -1.45914426     -3.03823972
    C     -1.48788616     -2.82219990     -1.71059664      3.99763295     -3.55330931      0.16967605     -0.31746126
    C      0.00066922     -3.03628112     -1.66778670      3.99674482      3.45394549     -1.46031461      2.55863514
    C      0.40824408     -3.27806833     -0.28215808      3.99323530     -8.98456462     -1.88519779      4.97387998
    C      1.61148922     -2.83549151      0.22865388      4.01137258     -2.30028787     -2.65011452      3.82046020
    C      3.00960391      1.49673047      0.49258705      3.99952060      0.00293633     -5.60020338      7.22889789
    C      2.55060733     -1.17354128      1.57670101      3.99137478      3.27481767      1.92939601     -2.57822451
    C      0.63228837      1.19572347     -3.33781652      3.99943291     -5.13515594     -0.07098774     -1.17635797
    C     -0.40415343     -1.49533698     12.92695521      3.99974848      5.83230175     -3.49591350     -3.21845031
    C      1.03123098     -1.58692470     12.79199746      4.00168018      5.68321029     -0.32858357     -2.92495253
    C      1.74321328     -0.36545247     12.79070358      4.00123506     -7.36803859     -0.43554531      1.65397166
    C      1.11060495      0.92268923     13.01411397      3.99873938      6.74783198      0.09311309      0.14835019
    C     -0.28071789      0.97634645     13.17607983      3.99091310      7.12093513      6.70193764     -1.33451588
    C     -0.98369449     -0.25357278     13.12161675      3.99064700      0.40688598      0.74601198      0.44636607
    C     -0.96200997     -2.49936244     12.04331730      4.00178867     -1.88254356     -1.13319033     -1.70928340
    C      0.15559947     -3.16595988     11.35736692      4.00122786      1.55925180     -4.33965073      0.24025340
    C      1.42132142     -2.56089651     11.79538159      4.00045977     -0.98343600     -2.38545862     -3.67622757
    C      2.44511055     -2.37168574     10.85761863      3.99063026     -1.67089803     -4.95610213     -3.88512295
    C      2.85400573     -0.13354743     11.85793902      3.99889517      1.46793824     -5.37689196     -3.16787602
    C      1.81325536      1.94509111     12.22392521      4.02228179      1.70373626     -1.74413148     -0.06319062
    C      0.99970723      2.86392458     11.55109173      3.97362654      2.13521524     -3.99643791      2.00535229
    C     -0.40925794      2.90497533     11.70429060      3.99158167     -1.69000399     -5.10743206      2.91272882
    C     -1.04207161      1.98951336     12.53357433      4.00256215      5.62945224      2.69547644      1.63704710
    C     -2.33380128      1.39081928     12.05945931      4.00501839     -1.72193744     -0.12153014      0.22715412
    C     -2.29962530      0.01067363     12.46889860      4.00864082      5.46947391     -9.61973504      7.67284998
    C     -2.81433749     -0.96568772     11.61390568      4.00459378      0.73492879      7.76499850      4.36766675
    C     -2.18616324     -2.23043376     11.38610549      3.99217851      9.06702292      3.50402952     -0.20584255
    C     -0.00614042     -3.59294022     10.00229262      4.00630835      1.69305178    -10.29308826      9.17015053
    C     -1.27965702     -3.30508934      9.33341900      3.99738788      0.75939880      3.75282546    -11.15451148
    C     -2.34947196     -2.64414436      9.99695426      4.00598747      1.44104799      1.78004791     -1.31957302
    C     -3.11298339     -1.60087994      9.33241276      4.00155602      3.65019945      3.64145896     -0.82256657
    C     -3.35898007     -0.54289127     10.29470036      3.98141673     -2.92469328     -5.70170836     14.37967956
    C     -3.47187372      0.77940983      9.92717080      4.01844391      5.21889700      2.40616090      0.36946795
    C     -2.90700210      1.80685387     10.82241271      4.00496401     -1.21786107     -2.51629428      5.61982903
    C     -2.18989980      2.83147884     10.02474167      3.99023053     -3.31814178      4.46922303     -0.15209279
    C     -1.00686365      3.37884378     10.44961299      4.01410209     11.69593901      5.42846898      1.22785116
    C      2.89528774      1.28384807     11.48362602      4.00897168      4.89540268     -7.70706190      2.94219366
    C      1.01983304      2.59815677      7.41683104      4.01706041     -0.54414033     -0.07988889     -0.79654729
    C      2.19227228      2.24551199      8.10891037      3.99165949      1.05473203     -1.93880438      0.37445663
    C      2.91629947      1.01414232      7.87500657      4.00485228     -8.22084603     -0.86203315     -4.82002377
    C      2.40220300      0.01551520      7.04863002      4.00271210     -1.55090141      7.58724796     -6.63676392
    C      1.10981045      0.31896905      6.42993949      3.99650467      7.08910222     -0.57582404      0.88657231
    C     -1.05721482      1.57750375      6.70641798      4.00654927      1.61757963      4.61957174     -4.27956774
    C     -1.33920892      2.64491558      7.67777316      4.00342119     -7.44939064      6.54496781      2.29431312
    C     -0.10573064      3.25088977      8.12130599      3.99330955     -2.01413120      9.40309891     -1.81287010
    C      0.09157920      3.55914835      9.46252492      3.99529409     -8.32588182     -5.33886134     -5.86187616
    C      1.30765579      3.28828630     10.20091719      4.01753449      4.98210722     -0.98165299      6.61851582
    C      2.31676717      2.60488012      9.49505475      3.98366996     -4.54998768      5.67278810      9.29585044
    C      3.48729990      0.61800507      9.15440468      3.99504854      2.20900791      5.57008407      0.86631610
    C      3.53293133     -0.72092862      9.55677271      4.00120935      0.28621828     -0.29089423     -3.89018250
    C      2.92321395     -1.74562917      8.63553052      4.00710408     -4.43730436     -3.62624061     -7.12782612
    C      2.34217864     -1.37585366      7.43010560      3.97809923      4.92946944     -9.79327018      0.63690778
    C      1.12578161     -1.97087322      7.00441929      4.00497812     -1.33944707     10.36773032      2.97329297
    C      0.34478211     -0.88170222      6.35879481      4.01192714     -3.27833917      9.98749689      4.83034729
    C     -1.02996862     -0.82079911      6.57202682      3.99036130      0.93802558      5.67826439      0.33313030
    C     -1.78673040      0.41127794      6.71879536      3.99879257      1.99155618      2.28952522      2.15787826
    C     -2.33384389      2.41685893      8.64128451      3.98866737     -5.76936157      4.09625092      1.81544508
    C     -3.12506600      1.20377538      8.55096546      3.99364750     -2.03246258      1.99071889      4.94862590
    C     -2.86334137      0.19594098      7.64608035      4.00188229      0.08131904     -1.02934697      5.74668696
    C     -2.82115314     -1.24339807      8.01065233      4.00269419     -5.89610669     -5.11952374      3.33369824
    C     -1.68381706     -1.83262911      7.34831762      3.99092762      3.98109586      2.61672538      3.44572080
    C     -0.96160800     -2.89008968      7.95622861      4.01090501     -3.28565855      0.80848274     -3.87435341
    C      0.48801265     -2.94957817      7.80382806      4.00846792     -5.87949138      2.51465436     -4.72278393
    C      1.07370747     -3.34680944      9.08463545      3.98624364     -7.18471206      1.73301281     -4.66981876
    C      2.28745149     -2.74899061      9.46268698      4.00513767      4.96972688     -3.57165999     -4.60123394
    C      3.14175169      1.63127756     10.10419080      4.00003059      4.52719937     -2.51661220     -5.69619716
    C      3.21710693     -1.13102278     10.89709339      4.00551059      2.19520983      3.01488947     -0.54215013
    C      0.43937966      1.53857128      6.59271678      4.00032414      1.05504726      1.55629326      1.15135555
