  120
MD iter: 319
    C     -1.45831020     -0.83168670      3.12551859      4.00264988     11.13804394      6.08610123      4.97878317
    C     -0.06506738     -1.18724993      3.11814479      3.99772924      0.28276166     -5.38536871     -0.12666334
    C      0.96164172     -0.16516869      3.11081410      4.00328887      5.59345555     -1.89495673     -3.15366050
    C      0.53078084      1.19513432      3.05841084      3.96670573     -5.60912172     -2.77024668     -3.09860832
    C     -0.81285991      1.51703742      3.06146774      4.01677838      2.02867998     -7.05158126      3.91036369
    C     -1.85151203      0.54422174      3.03781323      3.99910592     -0.53170532     -3.52264049     -3.29978106
    C     -2.17847352     -1.76767383      2.33140644      4.00283101     -3.91261948      3.10859584      2.98240624
    C     -1.19757371     -2.73023941      1.79790510      4.00565418     -7.32601736     -1.31598776     -7.00770459
    C      0.08368501     -2.37845049      2.36867993      3.99641520     -3.10720228      2.05891139      3.85815774
    C      1.24430816     -2.50612144      1.58489074      4.00679046     -6.12884945      1.23425012      1.60968926
    C      2.20875659     -0.37619303      2.37081632      4.03173519     -0.01203510     -3.92909486     -1.73554813
    C      1.54631362      1.95766135      2.29560604      4.03869823      1.78890073      0.74822124      5.19619324
    C      1.12276247      2.97278712      1.40727367      3.98481883      2.33570794      2.65882382      0.37395716
    C     -0.30770319      3.36872074      1.35139984      4.02891501      2.03164102      2.52125674      0.20517490
    C     -1.22128114      2.59855337      2.11706223      3.98322787      0.35052409      1.03300817      2.30768748
    C     -2.54849208      2.27982099      1.57077570      4.01279102      3.33258917      6.73176964     -3.37971518
    C     -2.93171101      0.99253707      2.15142508      3.98545287      2.62653692     -0.57776386     -1.09523208
    C     -3.62474464      0.04762160      1.39530628      4.00502101     -3.34459849     -3.33962099     -6.30301503
    C     -3.20169553     -1.34952770      1.45522620      4.00222628     -2.29022083      2.41357611      0.37845368
    C     -1.29165563     -3.28446622      0.51779206      3.99150142     -7.21660276      2.76130505     10.51095130
    C     -2.41104014     -2.88187379     -0.37959972      4.02172030     -8.97110073     -2.39142578     -3.93939155
    C     -3.27552257     -1.86261257      0.08837163      3.97706644     -4.01932296     -0.23829198     -1.30658242
    C     -3.79812568     -0.84115485     -0.78895449      4.03979128     -3.31775547      1.42696746     -6.44476172
    C     -3.94143483      0.35174341      0.03250961      3.96824939     -0.40973118      1.75787758      3.12922123
    C     -3.61869800      1.61826240     -0.56702868      4.03101596     -1.52251578      0.99505504      0.82388864
    C     -2.87365336      2.59897773      0.25016667      3.99242182     -1.54339929      1.60367375     -5.43432300
    C     -1.84635532      3.23830458     -0.56175292      3.99296809     10.75008065      0.65465671     -1.38359963
    C     -0.58664528      3.64262049     -0.04607522      3.99401062      1.85566015     -3.07040419     -5.83070066
    C      2.47586999      0.95392093      1.77016089      3.96451317     -2.50264259     -0.00353592      1.28419181
    C      1.41405090      1.98932392     -2.59808322      3.97377311      2.52768923     -6.21395362      0.76948513
    C      2.44935535      1.52785035     -1.80810483      4.00831900      1.27391292     -9.40734814     -0.42074660
    C      2.86028301      0.14379545     -1.70129181      4.00892487      1.64368258     -1.41697871      2.25782602
    C      2.14127403     -0.73616914     -2.46079537      3.97454768      0.53208517     -1.38234961     -1.09612416
    C      1.05889252     -0.36203528     -3.34029433      4.00512915     -3.13035934      4.30183932     -1.46616504
    C     -0.67882216      1.37747657     -3.49388788      4.02566412     -2.32621867     -0.74234599     -1.96921681
    C     -0.85956891      2.53913936     -2.65673445      3.96037071     10.57471148     -1.49935305      3.54462913
    C      0.43009015      2.98547632     -2.17978869      4.02647250      2.46471563     -5.54431481     -3.90218856
    C      0.60813263      3.49717783     -0.85330973      3.99814140      9.46813109     -1.88026910      2.46118709
    C      1.59470094      2.99356296      0.04128938      3.98652496      0.05281858      2.05156993     -0.24853206
    C      2.54800041      2.04104786     -0.38877369      4.00888901      5.91212696     -5.95736957     -7.84659867
    C      3.17377157     -0.16622992     -0.29477742      3.97740190     -1.52979053     -6.20224107     -5.08980971
    C      2.81309141     -1.40249641      0.25967797      4.01912046     -0.66060444     -7.56531902      6.83720729
    C      2.11989975     -2.34646011     -0.60457631      3.99442471     -6.94953535     -1.78901081      4.30116560
    C      1.84477275     -2.05629116     -1.94690167      4.02573348     -2.74362589      3.22285603      1.89602975
    C      0.50613377     -2.44372528     -2.42658325      4.00215247     -6.58341439     -2.87963193      2.23774520
    C      0.09933000     -1.36884707     -3.33364255      3.97506613     -3.61070152      3.93607953     -1.26863076
    C     -1.30209974     -1.04323918     -3.45608252      4.04067284      4.12934052      2.97399097     -1.47492335
    C     -1.64170627      0.37976489     -3.45259955      3.97192101      1.64740527     10.94595436      1.15242898
    C     -2.01919650      2.75160964     -1.90511274      4.03129815     -0.21851493     -2.32650264     -4.30507960
    C     -3.02734409      1.68303744     -1.87145541      3.96205744     -3.74332956      1.79203443      8.63891007
    C     -2.91042006      0.50481892     -2.66436059      4.03891917     -6.33316335     -4.26339373     -4.22710559
    C     -3.20544250     -0.75700884     -2.07461730      3.96258475     -3.39587962      0.40002785     -7.08404814
    C     -2.25467860     -1.73183848     -2.53996998      3.98840610     -9.11711664      3.94263273      2.73666249
    C     -1.87190478     -2.81964438     -1.74225116      4.00166574     -5.73314754      7.06457756      0.88674688
    C     -0.43454538     -3.17703785     -1.66247627      3.99228048     -3.95920930      1.19636329     -2.95516689
    C     -0.09284926     -3.46354590     -0.27610192      4.01783010      1.25080560     -4.26116231      6.06363169
    C      1.16415864     -2.96859540      0.28607713      3.98642845     -5.20556063     -2.59428865      5.15605224
    C      3.01652761      1.02229444      0.51263634      4.01607904      3.16099651     -4.88325321      2.02451365
    C      2.29850291     -1.47552479      1.57681152      3.96724890     -5.51885226      0.38220771     -8.75570756
    C      0.77261180      1.05555291     -3.42065910      4.00689480      8.28814059     -3.03354840      0.46529688
    C     -0.10194126     -1.68607275     12.84768397      4.01160136      1.69122812     -6.70440046     -4.43509393
    C      1.31829186     -1.76094286     12.52654468      3.99148592      3.20182439      0.76906347     -2.19530033
    C      2.12018376     -0.60848418     12.60921722      4.00717633      1.58568556     -3.74003374      2.95042668
    C      1.53631326      0.65051203     12.98072502      3.97898293     -0.52644415     -5.91670776     -4.01549659
    C      0.17722811      0.72823601     13.28128705      4.01454490      2.23921203     -8.64937488     -3.79084771
    C     -0.67838584     -0.44742135     13.21470581      3.98960926      1.25644943     -0.69994785     -3.32243967
    C     -0.76134474     -2.54495179     11.93822112      3.98008731     -1.06445313     -1.73103031      4.25787713
    C      0.28041866     -3.17843186     11.06460902      4.01946242      2.11571903      2.50204683      4.64975483
    C      1.57881496     -2.71463301     11.44027766      3.99339047      2.76428050     -5.12321701      0.48121187
    C      2.57345134     -2.50831789     10.44198723      4.01943170      7.47049952     -2.52845309      2.32733908
    C      3.13020356     -0.33053036     11.56414623      4.00575315     -0.23824626     -1.65789839     -1.70548624
    C      2.13121596      1.71622523     12.22120774      4.00487811     -1.55250099     -4.58572613     -1.58039113
    C      1.34939299      2.76267224     11.69734390      3.98169849      2.85357996     -0.04113329      0.67347853
    C     -0.06595949      2.83055909     12.02313602      4.02066884      5.13706901     -3.81198396      9.32973466
    C     -0.65954780      1.81066825     12.77354716      3.97740339      4.50453256     -5.81341663      0.94959521
    C     -1.95588134      1.37868256     12.39372267      4.02341829      2.33489720      4.95461824     -0.97157229
    C     -1.89244015     -0.10138054     12.66008812      3.99362156      0.80586897     -7.26576600     -0.66676014
    C     -2.57222650     -1.03283079     11.83070048      4.00456703      1.52526656     -5.72198216      4.94027948
    C     -2.03374210     -2.31698558     11.47322720      4.00173846      4.35503193      1.96149268     -1.42303428
    C     -0.01064233     -3.45307974      9.74247539      3.97040291      4.36148885      3.82655435     -1.02360834
    C     -1.34860492     -3.16668273      9.14550927      4.03188262      8.82362696     -2.94045017    -11.13298538
    C     -2.32786399     -2.58733057     10.06360930      4.00100795      3.05418321      5.60368831      2.63344542
    C     -3.10272209     -1.42380847      9.54043194      4.02130064     -0.87439209      5.60378852     -5.57086986
    C     -3.25290896     -0.54480517     10.65987364      3.97282312     -2.82720499      0.61690534      4.50372414
    C     -3.38071066      0.88838959     10.38266247      4.03970390      2.03490031     -1.32119522      3.28673786
    C     -2.68622857      1.82830144     11.26043805      3.97575743      4.33723026      5.01559677      8.64980306
    C     -2.06780686      2.84851135     10.49340574      4.01632992     -4.14392096      4.39309659      3.34068684
    C     -0.74735034      3.35764267     10.82144386      3.98145367      5.35564472      3.26284786      6.55621437
    C      3.08713514      1.11729525     11.32610083      4.00979669     -4.16104098     -1.70580051     -1.70631501
    C      0.93699912      2.79924147      7.58300938      4.01179680     -1.03750948      3.45174441      2.83710472
    C      2.22696386      2.42459943      8.10213106      3.99478501     -0.93937375      1.83966893      0.18753178
    C      2.85768262      1.17512472      7.73850712      4.00352792     -3.35290988     -2.86524133     -5.69194993
    C      2.11934109      0.29887243      6.95106152      3.98279897     -5.89335272     -1.96356969     -8.99057541
    C      0.86082638      0.64359484      6.36204656      4.01172224     -5.75611518      0.78400792     -1.09573967
    C     -1.14000290      1.91033264      7.00729600      3.97189904     -3.70056821      0.25506369      5.04435019
    C     -1.38643683      2.85055847      8.06130290      4.02272952     -2.25870563      4.51551580     11.64797638
    C     -0.05631433      3.37793077      8.43065288      3.96126990      3.97986727      1.19726784     -4.03476522
    C      0.16761273      3.70186242      9.76581971      4.03661846      1.93059276      4.73023343     -0.43343029
    C      1.50259037      3.22876813     10.39806652      3.99021744      3.19783466      1.46777320      3.59980497
    C      2.46837506      2.67481778      9.54508299      4.01585510      4.12241333      1.53746847      6.95361615
    C      3.52633837      0.65247797      8.90345117      4.00335674     -5.39665497      0.58791539     -2.06127556
    C      3.49105143     -0.73793601      9.18565438      3.99145866      1.48660635     -5.81124490    -11.39267617
    C      2.83430280     -1.64296153      8.26795740      4.01574086     -6.05817448      1.18202309     -7.99529193
    C      2.14358185     -1.12549699      7.20729461      3.98022275      1.72758806      7.63020072      3.83353255
    C      0.86196979     -1.71019875      6.75393357      4.02489283      3.07071350      1.14133280      1.24912142
    C      0.04583137     -0.61006315      6.31595968      4.00213604     -7.46626156     -2.90984039     -0.67928953
    C     -1.29689698     -0.50528962      6.63352687      3.97691100     -2.41119741     -3.95035752      1.11697408
    C     -1.94738025      0.73383327      6.90169711      4.01572356      2.06666301      5.97538137     -1.55392166
    C     -2.36396030      2.59497395      9.08116229      3.99675242     -0.05147445      7.84158327     -0.42896983
    C     -3.17309665      1.39110617      9.03523210      3.97618084     -0.43483781     -6.01479152      4.35130311
    C     -2.98086940      0.47833266      7.93584419      4.03473223      2.43796962      3.88922819      4.46137923
    C     -2.85042172     -0.89874867      8.30833068      3.95736497      3.31289312     14.80274059      4.61156852
    C     -1.89455552     -1.53611592      7.41594829      4.02961283     -5.77812409      2.79683779      2.84556445
    C     -1.11784086     -2.60634359      7.86100830      3.96499950     -2.20593966      5.23167908      2.24155205
    C      0.24253356     -2.74461366      7.53390003      3.99053648     -2.22237636      1.88369754      1.34183405
    C      0.95518934     -3.31394225      8.71354601      4.02966892     -6.13078479     -3.43663954     -1.74283401
    C      2.19209224     -2.72785053      9.05873802      3.97265328      2.48571345     -0.49134318     -5.53989408
    C      3.29141105      1.56384981      9.97706278      3.99624921      4.66331306      9.06430943    -10.62572793
    C      3.32955360     -1.24648206     10.52509676      3.99347736      6.25709559      0.91359647     -1.40821244
    C      0.24764892      1.87871910      6.67496189      4.00509406     -0.58159803      5.50194724      4.03192480
