  120
MD iter: 579
    C     -1.81997240     -0.54751420      3.09882082      4.00749875     -3.53980117      0.87312209     -0.44587285
    C     -0.56383493     -1.21594793      3.18119648      3.98696665      2.77989804     -1.13652200     -0.76373022
    C      0.63910510     -0.52871972      3.18471837      4.01578097     -8.13677666      2.44724258      1.89476582
    C      0.66287960      0.90964283      3.03087555      3.98918098      1.76709069      3.56795221      4.19723212
    C     -0.56842437      1.57949980      2.97958049      4.00570701      1.02794351      3.44916363      4.11534516
    C     -1.82545526      0.87656341      2.99812664      3.98951639      5.83550882      0.15945269      1.00702474
    C     -2.78977470     -1.33700466      2.27300208      3.98831765     -1.75252049     -2.68334116     -4.19785968
    C     -2.05945171     -2.55852447      1.86175937      4.01135315      0.45109122     -1.56150407      2.06534550
    C     -0.68181346     -2.48612625      2.38810323      4.00856577      1.50959629     -0.27620667     -3.92394037
    C      0.39680660     -2.95456487      1.63788054      3.98855310      1.78063986     -1.18472264      5.06362055
    C      1.77438143     -1.03967234      2.38056761      3.98795916     -1.32403873      4.73631613      7.51189458
    C      1.79414348      1.31886753      2.22194388      4.00246188      8.57722470     -7.12262054      1.18634241
    C      1.62622749      2.35655859      1.32356787      3.98511018      1.70136701     -2.28728016     -7.05827722
    C      0.33263008      3.04724654      1.22959323      3.99099223      4.85069924     -2.68236443     -0.67681399
    C     -0.69043334      2.70364003      2.04996450      4.00531254     -1.53534245     -1.94961277     -0.66749683
    C     -2.07168357      2.65430804      1.51260498      4.01153703      2.23484295      0.28442951      6.41764341
    C     -2.78923670      1.50786705      2.10780105      3.99934037     -1.46835153      4.75245322     -1.58784712
    C     -3.72252411      0.78561660      1.31916529      3.99648976     -1.60702660     -0.82539461     -0.36144740
    C     -3.73101149     -0.70159446      1.43627907      4.02109918     -7.19155104      0.69647162      3.43092451
    C     -2.25111554     -3.03452970      0.53993624      3.99542366     -7.48113970     -0.46742903      5.19681425
    C     -3.19978113     -2.35938058     -0.36833297      3.98783548      2.28463153      3.28304320      4.71791669
    C     -3.92921769     -1.26861746      0.02125505      4.01656742     -5.78887649      4.06241279      1.46347091
    C     -3.98964245     -0.08418504     -0.83780689      3.98545011     -8.08188717      6.78542048     -3.64647690
    C     -3.90746681      1.09815542     -0.08078049      3.98638928      3.22677558     -0.50884131      3.36459319
    C     -3.22230727      2.22955720     -0.64265887      4.02129106      1.97024697      5.04240214     -7.25918290
    C     -2.28630464      2.97979090      0.18080474      3.98152874     -1.80435488     -1.27046189      0.84531663
    C     -1.18117059      3.44870290     -0.63688194      4.01195954     -2.74034893      0.22633508      2.32509556
    C      0.15256046      3.44086543     -0.12546564      3.99685493      0.89839967     -0.00776537     -1.11659042
    C      2.50762942      0.10888741      1.84179971      4.00913428     -2.96415768    -12.96776705      0.70111672
    C      1.77792489      1.29687574     -2.60196347      4.00153017      2.56790542      0.58829320      0.09895250
    C      2.62993283      0.61642588     -1.73037378      3.99239053      0.00119718     -5.10813928      1.93079482
    C      2.62773791     -0.82917054     -1.65229250      4.00663400      0.97740708      1.56970554      5.17330175
    C      1.73435154     -1.56521891     -2.44955482      3.99873081     -4.55115141     -4.95309761      1.24407427
    C      0.82979303     -0.91736770     -3.34325507      4.00888706      2.92817535     -0.05832715     -4.11050255
    C     -0.38204160      1.22472167     -3.54022590      4.02750322      2.45564255      2.77213252      1.12788772
    C     -0.28495155      2.52450016     -2.77411193      3.99601348      5.77707856     -6.88300828     -3.52429608
    C      1.07137985      2.51361879     -2.22208188      3.99485104      3.55569887      1.30517762      1.83871125
    C      1.26437036      2.99796581     -0.91019984      3.99604963      2.27560046     -5.68976913     -2.63064297
    C      2.23576958      2.35343754      0.03657148      4.02039610      4.19804762     -1.11180213      3.63612172
    C      2.87591187      1.17358030     -0.40399025      3.98966153      2.12342532     -3.25912944     -4.00419702
    C      2.88052031     -1.22221890     -0.24951640      4.00012195     -2.37103314      5.09878989     -3.66679873
    C      2.23215576     -2.31519362      0.30189275      4.00451486     -9.27824804     -8.42944758     -0.21054447
    C      1.24318220     -3.01348406     -0.50153766      4.00171685     -1.47049706      0.31968242      4.00865898
    C      0.99531600     -2.64897222     -1.85089042      3.99428344     -3.04735687     -9.17392623      5.82979793
    C     -0.32208477     -2.79380623     -2.45881181      4.00624735     -1.94251849     -0.03301773      4.06501283
    C     -0.46335612     -1.69011585     -3.36934466      3.99887171     -8.26316101      1.31723862     -3.88361578
    C     -1.66378997     -0.96560141     -3.43195139      4.00235073      5.39887285     -8.48374733     -1.73878647
    C     -1.62299936      0.48445520     -3.48713735      3.99508285     -5.54870225      6.06101680      4.24263670
    C     -1.37943133      2.97584601     -2.02853901      3.99706368      4.30399827      9.55394903     -5.10407167
    C     -2.64405608      2.19141370     -2.03503150      3.99659187      6.16273615     -1.01787028     -1.70447520
    C     -2.82153431      0.99270825     -2.74195009      4.01023044     -2.99790500      5.04937087     -4.60107763
    C     -3.46298954     -0.18683387     -2.18117726      3.99922773      1.90038222     -3.00756499      4.36911493
    C     -2.82930924     -1.36727175     -2.62061055      3.98941600     -3.56972823      0.36398102     -2.39638559
    C     -2.67043989     -2.40417965     -1.73673919      4.00248297     -8.93019544      2.18729428     -0.84277832
    C     -1.39112218     -3.12622016     -1.64035250      3.99475142     -2.74317729      4.81248803     -5.66188238
    C     -1.12616806     -3.48214765     -0.24474036      3.99720943      1.89717015      0.55075583     -3.44862547
    C      0.13732069     -3.47995481      0.29405305      4.00180402    -14.26082128     -2.14280520     -6.01112471
    C      3.02563315      0.03922148      0.50517794      4.00389163      8.89697618     -4.82400946     -2.67752312
    C      1.64390583     -2.24417863      1.67309368      4.00367109     -0.95128207     -4.05794468     -1.50667860
    C      0.86164564      0.46900806     -3.37426258      3.98320056      1.69023297     -4.28148935      0.20149766
    C      0.54864822     -2.10299986     12.46920583      4.00006632      7.02574816     -4.73764435      0.91767709
    C      1.90405478     -2.14026376     11.89637557      4.01421218      0.74252646      0.51994651     -3.27764190
    C      2.78665302     -1.05223235     11.99653957      3.99635276      1.68996587      0.32308816     -3.53565726
    C      2.28434319      0.11224651     12.70307826      4.00122152     -0.75310991     -3.85912009     -3.02891352
    C      1.00369826      0.15286258     13.32180068      4.00626191      1.69315497     -2.21129111      1.93862015
    C      0.12479994     -0.96153155     13.12370512      3.98738122      4.89966564      1.56240914     -2.07840244
    C     -0.32569638     -2.87691016     11.60011780      4.00775343     -0.69083940      0.48222416     -5.29983429
    C      0.44326706     -3.37590966     10.44131440      4.02605906     -5.04619556     -8.26103946      1.05717333
    C      1.77110070     -2.85575976     10.59415890      3.97688648      2.50187248      0.46964813     -0.58418656
    C      2.51837593     -2.49649752      9.53125615      3.99929235      3.65578859      6.61835845     -2.95239405
    C      3.58902783     -0.63282941     10.83502953      4.00641543      6.54873320     -5.67710138      0.22679411
    C      2.75858310      1.28399482     11.94419045      3.98132547      9.79906415     -3.19940995     -0.05652836
    C      2.01865988      2.47035008     11.87143248      4.01980876      1.75776781     -4.22170418     -1.36728179
    C      0.67722705      2.52166663     12.50292084      4.00077794      5.44021491     -1.84327773      0.83600437
    C      0.22771096      1.40851989     13.21719191      3.98622971      0.76066286      1.14656894      6.71978597
    C     -1.16041947      0.99676804     13.02757663      4.02371484     -3.69362786     -0.28646480      0.51874387
    C     -1.24915871     -0.47918890     12.95265696      3.99861543     -1.55297820     -7.36096762     -3.40048777
    C     -2.10117756     -1.17795984     12.10369028      3.99973879      1.40660352     -0.81011261      8.63053454
    C     -1.64490551     -2.32719332     11.44646204      3.99408998     -5.50270916      1.99519839     -2.08182584
    C     -0.14274635     -3.32729791      9.14610729      3.96666708     -0.06757206     -7.32981943     -5.35601716
    C     -1.50206674     -2.84776507      9.03018050      4.00909855      0.52819317      3.18412733      1.24839540
    C     -2.21863438     -2.31536973     10.09846228      3.99518770      7.65436960      7.04268838     -5.07694060
    C     -3.07007726     -1.10840360      9.98617041      3.99731727      0.95861361     -5.70024289     13.33700585
    C     -2.97686415     -0.35083980     11.19446533      3.99654213      0.39872535      4.77690634     -9.29520979
    C     -2.96341225      1.03107261     11.17406046      4.00195913     -1.19868526     -3.53973191      4.52823373
    C     -2.00364747      1.73672693     12.09526251      3.99830261      6.79928513     -2.84123454      5.50435979
    C     -1.52991522      2.91639476     11.40599121      4.00497690      0.73192202     -2.49075453      5.21014882
    C     -0.19853867      3.23302133     11.57798989      3.99266853      2.48131584      0.71330389      6.12039756
    C      3.56913769      0.83989001     10.83043586      4.00948343      1.90636651     -5.41534183     -1.70932187
    C      0.79256363      3.32468195      7.94450564      4.03099760      2.91520013      4.53309517     -6.25245455
    C      2.07233080      2.73384874      8.12924309      3.98822233     -5.16690499      3.17408894      0.55816974
    C      2.50269280      1.52976848      7.45481717      3.98802785     -4.07713300      1.68433348     -3.46848721
    C      1.68871047      0.82675481      6.54792942      4.01672516      3.53255337     -2.39094289     -0.87387101
    C      0.32620605      1.34887382      6.47131734      3.99714508     -6.02503020     -0.01153547     -4.52114330
    C     -1.48342338      2.62363332      7.67823163      4.01618864      0.91379798      2.81103672      5.71742417
    C     -1.31205325      3.36919922      8.96892357      3.99687138     -3.77979558     12.34361490      5.23161995
    C      0.02243238      3.73215727      9.16971588      3.96897515     -2.33842696      0.43297015     -1.28785345
    C      0.64731860      3.66108407     10.39591771      4.01737882     -1.34650638     -1.10506203      2.56407267
    C      1.99312973      3.14469180     10.56777661      3.97840685      1.90331192     -0.31064886      2.64673561
    C      2.73899854      2.71447635      9.45183261      4.01785554      2.84168125      8.21842009     -9.43035308
    C      3.40180689      0.74548070      8.33972609      4.00421657     -5.02412674     10.01311439     -5.74305480
    C      3.43126454     -0.63743384      8.35859318      3.99034873     -1.31231699      0.31109955     -4.54325724
    C      2.51841651     -1.32507477      7.43459486      4.01838235      5.46777800     -1.99662870     -5.71054569
    C      1.64219042     -0.61640995      6.60718234      3.96871056     -3.21028412     -6.54802997     -3.44094903
    C      0.28043880     -1.03750930      6.48306021      4.00497006     -6.40271754      2.67778962     -1.95269060
    C     -0.57090609      0.16595671      6.38120269      4.00601900     -2.34856576      4.57722274      0.69659052
    C     -1.83980186      0.24513346      6.94951611      4.01210887      2.83114406     10.91010269      6.14474274
    C     -2.29176681      1.48427009      7.64925499      3.99382589      0.61175019     11.47917492      4.54671890
    C     -2.08953574      2.94066182     10.07372394      3.99117681      2.45656075      2.60697955      2.83485694
    C     -3.00773778      1.82372201      9.96484963      4.00431806      3.87690130     -2.24150695     -0.55561698
    C     -3.06894876      1.05739362      8.79164749      3.98905142     -1.37855430      4.50980409      8.05966685
    C     -3.13746350     -0.41326011      8.77657577      4.00699644     -3.34208217      2.34025638      1.69131008
    C     -2.32215585     -0.90968209      7.68940358      3.98553081     -2.33053125     -5.50744536     -6.67702010
    C     -1.54593975     -2.08706628      7.75633206      4.01345048      1.65372746     -2.36542694      4.52145893
    C     -0.21360881     -2.15417330      7.17038376      3.99880051      0.89820963      4.14635364      0.83786309
    C      0.69235358     -2.94167507      8.05903151      4.01925233     -5.50691242     -0.86975811     -3.24144888
    C      2.00259452     -2.47643215      8.20147846      3.98385042     -3.57168662      5.29305315     -0.90029208
    C      3.50714966      1.50614785      9.57551164      3.99349434      2.25041599      0.35514588      3.73059722
    C      3.47267769     -1.36333299      9.61975675      4.00528250      0.61911849     -3.86954424     -1.43637042
    C     -0.11925383      2.55102675      7.08497317      3.99545713      0.85002991      3.28050052     -1.28113354
