  120
MD iter: 399
    C     -1.64367818     -0.71382160      3.12113019      4.00185494     -2.39434843     -0.24636108     -1.47911684
    C     -0.30576547     -1.20354052      3.22009902      4.00485213     -7.55344067      5.77725169      4.40445454
    C      0.84199457     -0.32574602      3.17742785      4.00558426      0.38126292      2.10378723      1.19316426
    C      0.57594308      1.11626439      3.10050020      4.01146146      7.25311198      0.48051344     -0.95708401
    C     -0.74496027      1.60110301      3.01211887      3.99196982     -2.81703491      2.61384385      3.35761374
    C     -1.85426482      0.66832664      3.02106857      3.99200209     -3.24548185     -5.38293504     -4.99105676
    C     -2.37227510     -1.61363288      2.24686132      3.98848248      1.54175876      4.10623620      3.29443574
    C     -1.49795962     -2.66376762      1.79628913      4.00905520     -1.09876167      4.93946108     -0.77751226
    C     -0.19054990     -2.37342409      2.36297705      3.99776211    -10.80942066     -1.50591208      4.52641219
    C      0.96100429     -2.66526929      1.57152561      3.99832516     -3.75219967     -8.16336541     -5.09104055
    C      2.04863906     -0.62442727      2.33309406      3.98022786      0.00733793     -5.35312143      4.16949810
    C      1.60444568      1.72208033      2.19737182      4.00364870      3.03811191      3.04846576     -0.73853733
    C      1.25011624      2.81965489      1.35879020      3.99213739      6.93686265     -2.82576741     -5.50449395
    C     -0.12590890      3.32720223      1.31919886      4.00078028      7.38021519      0.13218170      6.35865196
    C     -1.14991628      2.71511582      2.14350022      4.00792096     -0.75271512      0.81150621     -3.97816558
    C     -2.47399704      2.46711944      1.58066287      4.00450387     -7.18675116      1.80102581      1.09884989
    C     -2.90586128      1.18714575      2.15952040      3.99528358      5.46053357      1.37949196      3.60298814
    C     -3.66685413      0.34076018      1.37322057      4.00136804      1.32626285     -0.25060822     -2.05219237
    C     -3.40078067     -1.07999046      1.42519630      4.00612830     -1.97443640      1.05136451      3.60956660
    C     -1.60508593     -3.26644224      0.51283191      4.00226006      0.94602949     -2.27122407     -0.67081277
    C     -2.58623723     -2.68501560     -0.37065890      3.98288685     -4.20053020      0.77113002      6.70771133
    C     -3.44564851     -1.62335203      0.10276716      4.00565034      0.07128611      2.24133944     -2.73598140
    C     -3.77767649     -0.55757067     -0.79847650      3.99233019    -10.11111609     -1.58201064     -1.09012710
    C     -3.91063161      0.66976688     -0.04297110      3.99230256      6.29915906      2.47531797     -1.97398739
    C     -3.48092812      1.85876278     -0.55905837      4.00291056     -1.66619407      0.02375486     -1.92179785
    C     -2.73077790      2.79603072      0.24472908      3.98714367     -0.43972861      6.54560964      1.58488103
    C     -1.70320706      3.41469769     -0.60683524      4.01702114      2.74729691     -3.63693716     -3.75101862
    C     -0.39955611      3.68594621     -0.07489636      3.99096737     -1.79264309     -0.70789106     -1.68774837
    C      2.51242048      0.64719795      1.81713558      4.00138264     -2.08794039     -8.25108077    -11.12585993
    C      1.53749170      1.71442628     -2.64201442      4.00160587     -1.17283942     -5.65071844     -1.63967482
    C      2.46634976      1.26319423     -1.73577234      3.99497296      6.10565441     -4.91787850      4.40407183
    C      2.79224215     -0.18992399     -1.69131544      4.01233847     -1.15287820      2.22592505     -4.28718400
    C      2.04989723     -1.07146769     -2.49843390      3.98479699     -7.01512724     -6.22543355      0.21006148
    C      1.06657214     -0.59609380     -3.40055691      4.01153071      1.59994646      2.59421362     -4.19248807
    C     -0.64178450      1.37513690     -3.50811861      3.98937252      5.88506770      2.20088962     -3.21099056
    C     -0.67524567      2.58540646     -2.74311686      4.00509642      6.53221214     -3.21911981      5.01943721
    C      0.63152632      2.79167330     -2.20310745      3.99518563     -0.90445328     -0.38545132     -5.40150345
    C      0.75502439      3.36567259     -0.90104502      4.00685042     -2.25359943      5.08884156     -0.04808125
    C      1.83427024      2.87772389      0.03094756      4.02251916      3.12260915     -6.21976483     -0.64626124
    C      2.59110805      1.77562363     -0.37837951      3.98564106      2.31482233     -4.13620643      7.92420246
    C      3.14286634     -0.51190610     -0.29941691      4.01073378     -3.24877786    -11.55881621      7.11832375
    C      2.68044579     -1.76941243      0.21466748      3.98946171     -0.91190832      2.61366736     -1.45911161
    C      1.92017557     -2.70156549     -0.58746524      3.99845796      0.82019666     -6.96098744      1.83882368
    C      1.59587437     -2.38386546     -1.93451473      4.01194363     -0.62016671     -8.10160264     -7.02871810
    C      0.23688680     -2.63327844     -2.53293309      3.99394073     -2.16696198      4.17698508     -0.02615600
    C     -0.03602059     -1.52803009     -3.38393022      3.99010463      0.29996462      0.46279550     -1.55542385
    C     -1.40946155     -1.00070201     -3.40924258      4.00621507     -6.95406110      2.12607812     -0.76027524
    C     -1.65334157      0.45956069     -3.44859466      3.99184832      6.89223245     -2.62569987      2.06581179
    C     -1.79814036      2.80996488     -1.92787647      3.98630297     -1.43237039      5.11747949      0.20033413
    C     -2.88302968      1.87349680     -1.89851992      4.00211896      5.13553363      0.58907319      4.59181463
    C     -2.82149952      0.69672040     -2.65468133      4.00401998      1.72271599      8.02042199     -6.79624444
    C     -3.28642605     -0.56719985     -2.11268224      4.00970688     -1.47625215      8.68996647     -2.87497750
    C     -2.41352010     -1.63739622     -2.62577736      3.99009294     -2.75457982      9.55321496      0.67171445
    C     -2.13734899     -2.74523410     -1.73555461      4.03251738     -6.05704987     -1.68998913     -0.01784895
    C     -0.69024920     -3.28126078     -1.67128777      4.00220796    -10.68655781     -3.47885525      2.13896832
    C     -0.44832246     -3.58040093     -0.26374109      3.99998738     -2.14383616     -5.61919793      2.72956640
    C      0.87519998     -3.24758019      0.27124537      3.99336041     -4.20320073      0.25682761      1.09528917
    C      2.98945082      0.67634142      0.51708442      3.98893854      4.16552886     -0.42321410      7.05804437
    C      2.12928345     -1.78221036      1.59251235      4.01338118     -3.70409438     -2.29782119     -0.88495518
    C      0.72380209      0.84004183     -3.47225144      4.00540825     -0.92855681     -9.62217589     -7.35864135
    C      0.17899468     -1.83351543     12.77324571      4.00698910      4.18630999     -6.90155183      0.34882059
    C      1.56683601     -1.85980655     12.34957012      3.99529178      1.90566913     -0.55442275     -4.37767883
    C      2.38405190     -0.69211609     12.52167403      3.99905632      5.59206361     -4.13711486     -0.76403453
    C      1.85956260      0.56829565     13.02284092      4.01172894      6.19673936      2.35852044     -3.87800082
    C      0.48249130      0.59366449     13.40254447      3.99154431     -2.10620664     -1.26914760      0.41497541
    C     -0.31653765     -0.59543769     13.25784845      3.99113474     -6.18368472     -6.90217581     -1.20365058
    C     -0.68059701     -2.63527658     11.85339974      4.00042120      3.24653965      4.82313411     -1.02795123
    C      0.29333033     -3.26641420     10.87261885      4.02444464      0.14022169     -1.86787323      2.08372961
    C      1.64330698     -2.65329820     11.14936483      3.98940369      6.49883861     -3.29706392     -8.77597102
    C      2.57949262     -2.43111537     10.12829586      3.99817496      4.03896336      1.16578753      2.42344020
    C      3.29292247     -0.43462642     11.43671909      3.99597234      4.55577243      8.48502463     -1.91898228
    C      2.38759010      1.60233354     12.14031297      3.97819067      8.98193078     -2.44556545     -4.26943389
    C      1.56802852      2.69346161     11.84737145      4.01253252      3.63761126     -3.66361697      5.76850794
    C      0.19083698      2.73194425     12.23054650      3.98062036      3.54299380     -2.69302668      4.50658564
    C     -0.36674677      1.70727884     13.00248607      4.00410607      7.70449461     -6.43725884      3.00720717
    C     -1.70540835      1.17783129     12.60283593      4.02163710      0.03927404     -4.77919367      5.15850491
    C     -1.68548455     -0.25518913     12.80746414      3.99703424      6.59793306     -2.18217855      2.37086088
    C     -2.49704851     -1.07176103     11.97602321      4.00445054     -4.78852716      0.76891876      3.52023077
    C     -1.94148346     -2.28819581     11.46728982      3.97954834     -1.60247889      5.51369012      3.39128955
    C     -0.11034551     -3.49244592      9.54580095      4.00229188      6.43956564     -1.43381091     -4.55796661
    C     -1.41658326     -3.06143826      9.09264984      3.98800194      0.27164311     -3.99870228      0.89952922
    C     -2.32322996     -2.47963120     10.06436167      4.01970467      4.89125926      0.43849805     -5.36723171
    C     -3.16922817     -1.34551323      9.69864424      3.98473024     -4.55444540     -2.46609066      0.98621713
    C     -3.26122611     -0.48949680     10.87937643      4.00580218     -2.44359197     -0.81349011      2.83572422
    C     -3.21265640      0.94323567     10.64390197      3.99377961     -1.33079428      5.77253051     11.54623643
    C     -2.40319079      1.76017890     11.51681879      3.98268787      0.43912510      2.66869440     -2.53055204
    C     -1.87449397      2.86863179     10.78996793      3.99950317      4.19886527      2.91625225      3.81491989
    C     -0.55216504      3.28133656     11.12336789      4.00233514      5.80996014     -2.89865228      8.34947340
    C      3.28685184      1.01298621     11.18590764      4.01048606     -5.83789339     -0.80204371      2.05244614
    C      0.89504272      2.91370691      7.68011916      4.01347480     -0.76509647     -7.62011252     -4.57965821
    C      2.21141407      2.55247242      8.14272288      4.00375054     -2.46466642      0.72117349     -2.57169025
    C      2.73556521      1.26734370      7.66392200      3.98471900      1.17836862     -3.15374581      0.60680714
    C      2.01001492      0.45591637      6.75213079      4.00542903    -12.71088937      6.43781137     -5.43156547
    C      0.69150700      0.92253549      6.33660453      4.01041341     -3.88412017      5.33900206     -4.64963287
    C     -1.27532624      2.11144224      7.17241517      4.00905944      3.22799282      1.18645215      3.74432742
    C     -1.37331557      2.99766345      8.33476326      4.00241592      3.70243509     14.34377036      5.77338380
    C     -0.04830750      3.40317282      8.65542307      3.97887029     -0.40914602     -6.16968634     -0.90135376
    C      0.37042789      3.54226394      9.98602516      4.01409600     -1.41030875      3.91829581      9.55793560
    C      1.71993767      3.23204832     10.46215774      3.99331853      3.70473680     -1.28161515     -3.56537374
    C      2.66044231      2.75244040      9.55047837      4.00753318      7.18069825      4.86809035     -2.25912595
    C      3.52956142      0.65988400      8.70389749      4.02441475     -0.98613841     -2.54671274     -0.20339606
    C      3.48898337     -0.72231835      8.93276847      3.97264201     -1.19231892      1.44230492     -6.42415998
    C      2.74917134     -1.55818647      7.96434176      4.01845088      4.98448271     -4.83599037     -5.89046740
    C      2.00038743     -0.95686677      6.93638161      3.99076698     -1.40621568      3.76181297     -2.61438776
    C      0.62318233     -1.41155665      6.67759466      4.01270092     -2.01769689      0.44428599     -1.15792351
    C     -0.15465630     -0.25790572      6.30654977      3.98036855     -0.65436949      6.26599282     -0.68147183
    C     -1.49955420     -0.27513852      6.61921545      4.01416996     -3.24511359     -5.49182066      5.23942979
    C     -2.11546149      0.95670819      7.11960302      3.99038602      0.38181104      2.65319838     -1.36920627
    C     -2.28305195      2.75406678      9.41763540      4.01475587      0.57727797      8.56914657      7.37045407
    C     -3.15794130      1.49018374      9.36175671      4.01374741      1.96094857      2.82674757      5.50107878
    C     -3.00068631      0.63376980      8.18478676      3.99730373     -0.33471556     -2.76484852     -1.73096757
    C     -3.02676117     -0.85197548      8.41683146      4.01396855      6.04877751      3.05730114     -4.28779938
    C     -2.06582707     -1.37148225      7.40117193      3.98694732     -8.92102957      0.26847111     -4.41493197
    C     -1.33548683     -2.53144811      7.73330010      4.00873122     -4.16683061      6.36554031     -4.74548380
    C      0.04517475     -2.53813723      7.37305532      3.99561732     -5.65331715      3.68837808      0.92534100
    C      0.82086076     -3.12452294      8.45005053      3.99194072     -2.63499696     -5.47931137     -0.48808225
    C      2.12303905     -2.66515390      8.76714865      4.00745156     -3.14573903      2.89695243     -1.36381278
    C      3.42468872      1.56444601      9.89747603      3.99145216      0.79570082      1.54276174      0.85936820
    C      3.42573126     -1.24371312     10.29570500      4.00754024      0.84579487      4.03344060     -0.76753381
    C      0.14427973      2.09651573      6.81187570      3.97309621     -4.97016657      8.63632854      3.45303074
