  120
MD iter: 39
    C     -0.99375771     -0.97125623      3.15592262      3.99718721     -1.02345667      0.36477627     -5.40176118
    C      0.47411841     -1.00912245      3.15434957      3.99541724     -2.03294019     -1.11538838     -3.60921826
    C      1.20275363      0.16726284      3.16389939      3.99834412     -0.23206670     -5.54827359     -1.36480832
    C      0.45106228      1.42596100      3.18461363      4.00852259      1.06248318     -1.71096452      2.51762360
    C     -0.96266815      1.48996080      3.15572290      3.98545037     -1.73639372      0.35531817      4.72910143
    C     -1.69581644      0.24545688      3.15493933      4.00961450      1.69977305     -0.69384613     -3.74377971
    C     -1.48828584     -2.08947058      2.35005691      4.00836496      1.46872834     -2.33935829     -2.44643785
    C     -0.31663273     -2.77096609      1.81598779      3.98932240     -1.57448076     -3.31424781      3.54307181
    C      0.88405499     -2.17277000      2.34359629      4.01380611     -3.98252145      0.62186893      2.18072386
    C      2.02845127     -2.02800568      1.52877578      3.98529165      6.31924346      1.56788495      1.21928634
    C      2.39500310      0.32096395      2.31890076      3.99641431     -2.70513489     -1.27768873     -0.15769391
    C      1.17511576      2.38400927      2.34686754      3.98419959      1.90302015     -2.20572285      7.29640363
    C      0.52805881      3.33110929      1.53186243      4.02461599      2.32975913     -1.55859846     -2.27640727
    C     -0.93970477      3.31647074      1.48189596      3.98919874      1.66347975      2.27832452      2.20614086
    C     -1.65603598      2.45067778      2.33956159      4.00749868      1.18169137      4.32609742      3.57826231
    C     -2.87114976      1.81156776      1.79611922      4.00809733     -0.15120220      0.57974208     -0.08939205
    C     -2.87482545      0.43052844      2.29386979      3.98996564      1.86239491      2.34805491      0.70321698
    C     -3.32182918     -0.62750271      1.51764474      4.00152578     -3.36690973      2.72623804     -2.60304908
    C     -2.62528666     -1.89808025      1.52754444      3.99855660     -5.92282733      1.90034134      0.37983086
    C     -0.33314440     -3.31735447      0.47937142      4.00874372    -11.61279101     -0.97330393      5.15223102
    C     -1.49308942     -3.10595828     -0.38263255      4.00013200     -6.52001830      3.62748115      4.52897178
    C     -2.58509512     -2.38863918      0.14799394      3.99900781     -1.83782398     -1.06938366      3.49301719
    C     -3.26864901     -1.45972834     -0.69040086      3.98008069     -3.04456887      1.52822213     -0.65103436
    C     -3.71395861     -0.36195395      0.14196384      4.00983833      1.02752543      1.31994354     -0.92971592
    C     -3.67585455      0.93584908     -0.33192462      3.98283574     -0.85553457      4.68845642     -4.19715590
    C     -3.25735787      2.09917483      0.46419465      4.00440976      2.62365532     -2.25607806      0.66320527
    C     -2.48943218      2.98596160     -0.39888921      4.00562504     -2.56440642     -1.73841829     -2.13118046
    C     -1.32369713      3.58954219      0.11675401      3.98026706      2.34186108      0.94631171     -3.58939944
    C      2.35262269      1.69901814      1.80929223      4.00518432      1.11251148     -3.12869807     -1.71516345
    C      0.97962751      2.48742977     -2.50786693      3.99857557     -2.16898908      1.38138204      1.13027706
    C      2.13796798      2.30785742     -1.74170457      3.99842177      4.54358608     -2.05451498      0.28877926
    C      2.83378616      1.02276278     -1.72769714      3.99412013      0.96315508      5.75303416     -2.30560117
    C      2.35539387     -0.01179761     -2.52390349      3.99379852      0.62701381     -4.51309209      0.28419023
    C      1.23693931      0.15627984     -3.38363131      3.99387584     -1.55494726      5.91820270     -1.21985477
    C     -0.90603650      1.47777881     -3.36995045      3.98789285      2.34333879     -0.87698210      0.50163905
    C     -1.36935198      2.59052583     -2.53413829      4.00930993      2.30330616      0.23677119     -0.52563513
    C     -0.17723755      3.24073456     -2.02486508      3.98567130      3.24543335     -3.43194641      0.46978917
    C     -0.17670630      3.77798904     -0.74078592      4.02243115      5.99579462     -3.59116305     -0.39895132
    C      1.00342598      3.50304631      0.14221759      3.98704075      2.75317435      3.64459949      1.44941622
    C      2.11749662      2.84488879     -0.38324168      4.01009022      4.89906214     -3.62206905     -4.47429552
    C      3.30019708      0.74092948     -0.33974603      4.00813225     -1.89968877     -8.25524131     -2.35246050
    C      3.24668860     -0.54346669      0.16727954      3.98765457      0.99751895      3.07643819      3.06826314
    C      2.81136293     -1.66558317     -0.68355434      4.01020949      0.37805229      2.56238927      9.38609824
    C      2.36264426     -1.41878845     -2.00147436      4.00753597     -4.07027978      1.25755650     -1.80179720
    C      1.17087064     -2.05911454     -2.53153187      3.98991151      5.27307197      0.06022554     -1.41653181
    C      0.49404796     -1.10369289     -3.41884806      4.01115425     -1.34045727      1.28666897     -4.17746018
    C     -0.94314466     -1.05932970     -3.37800914      3.99635399      1.01162663      1.57917386     -1.35130764
    C     -1.61582162      0.22093936     -3.36000762      4.01642277     -4.58010494     -0.95376069      5.66627561
    C     -2.51821845      2.42898993     -1.74673474      3.98449043     -1.11715337      1.35959580     -9.22735242
    C     -3.29188644      1.16933375     -1.73503208      4.02884525      3.20412320      0.72416425      3.12247261
    C     -2.81156280      0.09920119     -2.48933234      3.97801301     -6.56987203      2.05033009     -0.37985925
    C     -2.86331797     -1.27511028     -2.01225718      4.02521556      1.38079236      0.50141930     -4.57271838
    C     -1.68999278     -1.94783688     -2.51261214      3.98034803     -5.24286462     -1.65479506     -1.67647991
    C     -1.01617244     -2.87773981     -1.72270205      4.00623606      0.43648897      0.56245193     -0.28927000
    C      0.47090218     -2.96919478     -1.69874046      4.00351875     -3.21713885      1.98761469      0.04740399
    C      0.86880930     -3.23030604     -0.32773384      4.00026469      3.05876274      0.95558861      3.93996732
    C      2.02580780     -2.56199840      0.17354050      3.99521058     -4.70063247     -8.30253501      0.20168926
    C      2.82856039      1.87456555      0.49660834      3.99848279     -0.51064763      0.03375950     -2.51650913
    C      2.78617508     -0.78959573      1.56249699      4.01072598     -3.39547311     -5.10081654     -4.55195370
    C      0.50756114      1.40337015     -3.39626227      4.01256843     -0.92237522     -9.34272417      1.04224371
    C     -0.75844031     -1.27119877     12.98257456      3.98659484      3.19419187     -1.99524044     -1.67577185
    C      0.71420179     -1.26172806     12.94335307      3.99483877     -2.08945442     -0.45267439     -0.28820941
    C      1.47516289     -0.08953947     13.01607833      4.00357785      3.09390977     -1.33838862      0.55136396
    C      0.72427274      1.18260721     13.03987643      4.00531569      4.23583743     -3.21328290     -6.72165318
    C     -0.67328353      1.17381133     13.04569125      3.99242179     -2.48079256     -1.58095999     -2.08361885
    C     -1.45681852     -0.06022783     13.05029196      4.01259172      8.16590433     -0.29312032     -1.64884456
    C     -1.21292780     -2.40340111     12.18065277      4.02199407      1.60282475     -3.23395158      2.59194366
    C     -0.01089266     -3.07222185     11.58707869      3.99166677     -1.61009079     -2.27914891     13.29115222
    C      1.14913674     -2.38054763     12.08019141      4.00359399      3.68804482     -0.89429098     -1.97528982
    C      2.24732848     -2.22159687     11.25100712      3.99412321     -2.72565641     -2.74787947      2.49407393
    C      2.65895148      0.08778548     12.15331581      4.00737523      5.78248822     -1.63371785      3.39715659
    C      1.43088246      2.11795691     12.15900800      3.98338440     -4.27026712     -0.84722486     -4.26944022
    C      0.73845165      3.04422954     11.39395728      4.00887838     -1.29487770     -3.30860476      1.92817765
    C     -0.71318997      3.05785647     11.40050977      3.99665072      3.47871908      1.86841291      2.62068604
    C     -1.39315635      2.14704279     12.22610284      4.00033391      2.50364875      5.19459948      1.57914985
    C     -2.60350084      1.48340004     11.71177486      4.00598581      1.37408981      0.51275641      4.09386095
    C     -2.60233627      0.10900211     12.18283385      3.98849796      1.28402619      1.96658562      5.45044926
    C     -3.04891939     -0.98115089     11.38408342      3.99891397      0.11002591      1.76679684      3.73465300
    C     -2.32898689     -2.22925637     11.34329658      3.98620333      1.75681455     -0.63954879     -0.22871070
    C     -0.05767330     -3.57644818     10.25686976      4.01118124     -2.99950715     -0.26128458     -5.78804891
    C     -1.26650776     -3.40688244      9.42877503      3.98960501     -0.03644555      2.36825595      1.42785915
    C     -2.38009774     -2.75978797      9.93059250      4.01025109      7.42984609      3.95781854     -3.41216326
    C     -3.10433671     -1.77579894      9.15455269      3.97038738     -3.59503826     -3.84883015      4.81312117
    C     -3.61135359     -0.73360352     10.03464422      4.03486914      1.83701873      6.03981713      3.68658221
    C     -3.51044000      0.59142896      9.53171964      3.97137874     -2.48075327      1.45609347      9.36440649
    C     -3.05587334      1.71354531     10.37387754      4.01285930      0.29018166     -4.83185070     -2.78914285
    C     -2.32359376      2.63934930      9.52506014      3.99168265     -2.35542517      0.46623684      8.47645589
    C     -1.18001866      3.26627412     10.04503463      4.00453316      1.00399753      3.49369504      0.18905071
    C      2.63634229      1.48417385     11.60489720      4.00517984      2.53975475     -5.82608527      6.35331550
    C      1.13288888      2.31206007      7.33754804      3.98682904      1.04948839      6.91179997      0.77751471
    C      2.29800715      2.16991049      8.08910539      4.01092613     -2.53540623      0.73408446      4.00075448
    C      2.96085933      0.90571758      8.07017510      3.98151286     -2.21903494     -0.91879919     -2.35424633
    C      2.52751526     -0.14220509      7.25609437      4.00176449     -1.37642761     -5.17109193     -2.16029500
    C      1.33318318      0.00437056      6.40601200      4.00453494      1.84676276     -3.42656907      2.76172743
    C     -0.80128893      1.25383119      6.47493835      4.01704076     -1.82745192     -4.66490414     -0.59811987
    C     -1.21660168      2.33048573      7.36932269      3.97659979     -0.00104515      2.09633014     -1.24930419
    C     -0.07046596      2.99790924      7.85416316      4.00634588      0.50198604     -2.78869007     -0.32999797
    C      0.01334722      3.45692011      9.17570265      4.00209546      4.49856285      1.94852094     -3.55050885
    C      1.17231143      3.28737874     10.01967474      3.99001047     -0.96841593      3.76905838      2.98036795
    C      2.30588011      2.67599174      9.47905290      4.00192363     -0.73748714      4.22941976      3.72023525
    C      3.47391106      0.60443137      9.40177290      4.00063218     -2.32961581     -1.79896678     -1.22451690
    C      3.46026512     -0.68256148      9.91886714      3.99545354      0.32993104      4.55258534      1.67633208
    C      2.99115479     -1.77857724      9.04671777      3.99987063      2.84285146     -1.30114723     -5.64692495
    C      2.56830796     -1.51387129      7.73129152      4.00594466     -2.52241048     -2.06049048     -0.46680487
    C      1.36802301     -2.20675531      7.28466951      3.99368235      4.41085366      2.75462981     -3.94660721
    C      0.59296778     -1.26164250      6.45439227      3.99500795     -3.22432297      2.48970472     -2.52942769
    C     -0.82677624     -1.25578057      6.42899751      4.01362495     -5.49641864      7.33468075      1.45806438
    C     -1.51246947      0.02242148      6.50874415      3.97947929      3.95438926      3.53500801     -0.11846063
    C     -2.38802926      2.17660620      8.15762925      4.01924910     -5.75294007     -1.11929589      5.30492405
    C     -3.13393969      0.91360874      8.17375227      4.00664383      0.03688065     -2.81766872     -4.70138941
    C     -2.67809941     -0.11208285      7.31571021      3.99011834     -1.00797952     -2.14003668      1.28519329
    C     -2.72806457     -1.48438310      7.81825556      4.02186661      2.67924129     -1.71191238     -1.59370874
    C     -1.56879181     -2.19290270      7.27094345      3.99373899     -5.86066075      3.23263284     -4.07189953
    C     -0.82701627     -3.11407711      8.03164877      4.00741111      0.98222288      5.03435996     -5.42822506
    C      0.64249704     -3.12441903      8.04856324      3.99795205      1.88297723      4.36957282     -0.67872372
    C      1.12119198     -3.38195496      9.40661082      3.99404906     -6.30229683     -2.42907969     -6.28162174
    C      2.26283760     -2.72874226      9.91044903      4.00603400      1.05448240      0.19389464     -9.32032567
    C      3.05945810      1.72131597     10.28418388      4.00537870      2.76742582      2.67320910     -7.46605061
    C      3.03092288     -0.93728613     11.26358535      3.99799178      2.72045292     -4.36220765     -4.00752317
    C      0.66687153      1.26614058      6.42849635      4.01137677      3.61366251      7.50556814      3.95164726
