  120
MD iter: 439
    C     -1.66695911     -0.67813832      3.03126893      4.00037528      1.06819583     -1.71320586      0.53673499
    C     -0.31067472     -1.23875545      3.11064688      4.00811147      0.71365764     -6.82178400     -2.64937553
    C      0.79623293     -0.35055506      3.11345482      4.01496021     -5.31966489     -2.46998062     -1.75113704
    C      0.57105283      1.09967284      3.10592808      4.00861821      4.36035290     -5.13237859      1.05470727
    C     -0.71260210      1.62454376      3.05605701      3.97644935     -1.14824224      1.43449027      1.95981732
    C     -1.85579489      0.70704015      3.04416211      4.01312804      4.14626689     -1.05383114     -2.93579628
    C     -2.44199465     -1.58322414      2.23416445      3.99527510     -5.04430934     -0.86812208     -6.71912203
    C     -1.64613984     -2.71866292      1.86577122      4.00288739    -10.10427959      4.70103195      5.34001040
    C     -0.30175490     -2.47475246      2.37127611      3.98822315    -10.62628500      5.20091821      6.12152592
    C      0.85184880     -2.79965381      1.66240596      3.99202752      2.09716981      3.50417237      5.41768335
    C      1.94969534     -0.65589413      2.26605627      3.96997169      0.29126957     -2.99828005      3.54670938
    C      1.63849554      1.64121800      2.24034805      3.97850706      1.36211402      3.00662505      0.77813569
    C      1.35847737      2.70457165      1.35031142      4.01198767      2.13340702      0.00476102     -0.72414642
    C     -0.00595656      3.26343304      1.28642220      3.99402744     -2.90064305      0.25959499      0.06033471
    C     -1.04638061      2.74751629      2.16167698      4.02337924      4.06114130     -6.37393438      1.90419162
    C     -2.36167472      2.46947907      1.52670168      4.00138340      4.93030886      2.41051344     -3.43152291
    C     -2.84766406      1.23833929      2.11446310      3.99663806      2.47210913      3.09024080     -2.51225204
    C     -3.59708398      0.38575548      1.32357467      3.99273776     -3.04984886     -0.26779059     -1.42084803
    C     -3.42117457     -1.00648022      1.40707349      3.98354744     -8.60990699      5.98076759     -1.51860556
    C     -1.81367344     -3.19315574      0.54716990      4.00181433     -8.96527819     -4.87238879     -6.65290882
    C     -2.80155065     -2.62083118     -0.37361302      3.98204303      0.28547696      6.38565259      0.23449652
    C     -3.67991622     -1.59733577      0.10728061      4.02791689      1.96384358      6.44335405      3.89614171
    C     -3.91632126     -0.47487326     -0.82480971      3.98806772     -4.22368910      6.92238571      1.26095827
    C     -3.95185403      0.76820579     -0.06020813      4.02187423      6.80543951      4.96826000     -2.79579833
    C     -3.41675715      1.93021477     -0.62139049      3.98690416     -2.82589874     -2.61743209      1.71880014
    C     -2.57894975      2.79204411      0.16735337      3.99335100      4.72329559     -1.54592787     -2.59216227
    C     -1.55075434      3.39789238     -0.66226386      4.02003856      4.54581699     -3.53458855      2.88491657
    C     -0.25797512      3.58758266     -0.09188814      3.99525379      6.04727555     -3.83496043     -1.08326214
    C      2.50039340      0.58702248      1.81566433      4.02522001      1.07981382    -13.17655902     -0.67343750
    C      1.66039718      1.62243616     -2.66526287      4.00299888     -1.81799116     -0.32721037     -0.20218138
    C      2.61669719      1.13697777     -1.79961373      3.99610374      5.55590580     -2.02950945      1.87937015
    C      2.79252487     -0.32921116     -1.67224538      3.98701878      5.89493766      4.11174441     -2.48902309
    C      2.03226531     -1.19239241     -2.47788190      4.01579723     -4.79810590     -2.65737773      3.96557079
    C      1.00148518     -0.63933403     -3.35057738      3.99235517      3.12841684      0.67107461     -1.24269938
    C     -0.58866768      1.29146055     -3.45010375      3.98034381      3.29002305      7.95406331      3.12576686
    C     -0.59639630      2.54499384     -2.71179492      4.02961223      5.37070192     -3.55698762     -1.56702944
    C      0.76833424      2.68707336     -2.16258364      3.99738581      5.90686417     -6.48338963     -4.71426433
    C      0.89864592      3.19608863     -0.86727573      3.99489939      4.04507384     -3.01183651     -4.29078937
    C      1.93718095      2.70499708      0.01347524      3.99567312      6.96687103      0.07644384      1.96947915
    C      2.77514831      1.65543774     -0.41875247      4.01992865     -4.41938136      4.60767595     -7.22843755
    C      3.02512530     -0.64990274     -0.32648423      4.00658588     -1.20079905    -10.58098538      0.67906714
    C      2.49686534     -1.85047882      0.22649577      3.99390984      2.01439978      1.05356821    -11.81138635
    C      1.68714142     -2.74547795     -0.54221737      3.99807027      0.58611127     -2.84857203      4.87458936
    C      1.44168307     -2.40281604     -1.88857743      3.99406104     -2.71712341     -0.57433700     -5.75107021
    C      0.11619462     -2.65276525     -2.48508743      4.02105478     -1.93364489      7.53453528     -3.70380075
    C     -0.11479400     -1.47885230     -3.38654572      3.99990189     -2.47766432     -6.82755188      3.02439738
    C     -1.47407764     -0.95404140     -3.43956328      4.00239691     -3.74618461      5.46723266     -1.93104545
    C     -1.68788030      0.45771027     -3.51071476      4.01379594     -7.34223646     -3.34603163      7.39238884
    C     -1.72138260      2.80546450     -1.96002198      3.95994210      0.26507601      2.20926665     -3.95405369
    C     -2.89412874      1.96758488     -1.98196426      4.02496894      3.77380714     -5.04459403     -0.74045742
    C     -2.85055548      0.76921552     -2.69568733      3.97286961     -5.22799875      1.46117653     -1.54656939
    C     -3.36694436     -0.45696675     -2.15128410      4.01664448      0.26503402     -2.88828296     -0.81193206
    C     -2.51216433     -1.57303637     -2.61150293      3.99440274     -2.60463171      5.33687189     -8.35235107
    C     -2.24166419     -2.60091529     -1.70292672      4.00646004    -10.33847414     -3.62842591      2.16104741
    C     -0.84509583     -3.11479252     -1.61169592      3.98715230     -6.96465960     -0.45527213      8.33419767
    C     -0.61951644     -3.45505008     -0.21950428      3.99286886     -0.80307137      0.25825109      0.40094831
    C      0.69747531     -3.34373323      0.32002048      4.01126553     -7.47616787      1.56567883      4.14609028
    C      2.98599206      0.52134324      0.48593345      3.97412596      2.44628800     -0.07756260     10.44251461
    C      1.98702080     -1.88347249      1.60355799      4.02577118     -2.71609476     -6.44256051      3.64736746
    C      0.74928722      0.77197046     -3.39308643      3.99617972     -4.77322948     -6.89756477     -0.56977586
    C      0.22741453     -1.92697885     12.70103807      3.99331691      4.57809280     -5.16375357      1.85342852
    C      1.64489717     -2.04494228     12.29235298      4.02630111     -2.26293176     -4.03172155     -4.38418983
    C      2.40504438     -0.83700641     12.30657751      3.98680117      0.13636558     -2.03547350      2.74253038
    C      1.90579771      0.41953211     12.82341018      4.01305312      2.26354031     -2.42452999     -2.90782556
    C      0.57079864      0.47963090     13.25122038      4.00177568     -5.86502012     -1.04352277     -1.58508176
    C     -0.26497420     -0.71221376     13.21275871      4.00963666     18.33543989      6.02387744     -1.93382374
    C     -0.56752511     -2.73432587     11.80631313      3.99267270     -0.91492762     -3.15827889     -1.96335511
    C      0.38353049     -3.32070284     10.85289153      3.99360512     -4.41903778     -9.15412405      3.32837740
    C      1.72372645     -2.85561543     11.09340405      3.98157963      5.22938844      1.69039879     -8.41556305
    C      2.60336206     -2.49305074     10.03679235      4.00677848      2.22891467     -4.32514323     -1.66156576
    C      3.34564692     -0.48480947     11.27056094      3.97878089      2.87915839     -7.86669483      4.45566309
    C      2.49009989      1.49629782     12.07465451      3.98674862     -1.36163276      4.23483653    -11.03594021
    C      1.69715450      2.61682139     11.83147995      4.00123890     -1.46541784     -1.43935251     -1.94327703
    C      0.31470806      2.65735707     12.27096001      3.99957134      1.31926511      1.54894216      1.36063547
    C     -0.30726970      1.60918490     12.95419785      3.99904082     -0.23773064     -0.13316522      1.08183662
    C     -1.63047452      1.15137508     12.73741156      3.97698220      6.32840937     -6.77594479      7.49933326
    C     -1.62178643     -0.26457619     12.89325098      4.00805716      8.22205826      1.53839244      1.29148291
    C     -2.31628086     -1.03260628     11.97033158      3.98721427      3.43244249     -6.99057355      4.69411455
    C     -1.81013655     -2.30024018     11.43545206      4.00177142     -0.57621271      0.50658691      2.75784532
    C     -0.06374258     -3.37478560      9.52651390      4.01585276     -1.29435309     -0.32992808     -4.64611144
    C     -1.36600000     -2.90459815      9.09610782      3.97043924     -2.16175028      5.12794951      6.79100331
    C     -2.31044141     -2.41414820     10.03973215      4.03293871      6.69257237      1.54323858     -4.17035578
    C     -3.09643603     -1.26740656      9.71530346      3.96961700     -1.58992010     -4.96352015     15.62297689
    C     -3.10873700     -0.42534148     10.94004759      4.00960457      1.27463860     -0.93168864     -1.97631276
    C     -3.15570409      0.98235657     10.82088043      3.99523807     -0.88238058      4.44839979      3.50728013
    C     -2.37300844      1.80273629     11.75103374      4.01083217      7.56393683      6.17033709     -1.42223248
    C     -1.75948480      2.90458468     10.97687268      4.00478425     -2.39800832      2.27236490      3.95017659
    C     -0.45141133      3.38965208     11.22506586      4.00745750      0.71520354     -1.12756802      8.03859267
    C      3.43071560      0.93587591     11.11460711      4.03309175     -2.40416991     -6.17486385     -6.80306231
    C      0.86691865      3.01718755      7.75721028      4.01639255      6.99378285      6.31008966      1.43177419
    C      2.14301573      2.54758624      8.13814531      3.98844470     -1.82593040      2.09184524      8.97664115
    C      2.65448415      1.36877901      7.58627628      3.99467314     -0.31191567     -1.65025516      6.56256119
    C      1.92178846      0.52778445      6.72381293      4.00982989      1.30157178     -2.83064880      1.40682258
    C      0.57187205      0.91844066      6.41822457      4.00225307     -0.55414790     -0.10247705     -1.87500052
    C     -1.32412528      2.21006368      7.32145911      4.01457733     -4.84936306     -4.90196502     10.55801656
    C     -1.34622149      3.04169179      8.52859216      3.99704660      0.05109113      3.41795086     -3.93558895
    C     -0.02575562      3.60941041      8.77393319      4.00698648     -1.33001459     -2.51084429     -0.72749343
    C      0.38634121      3.72987394     10.11562376      3.98293105      8.13924575      0.31341562      2.99938622
    C      1.74445897      3.29563937     10.53348164      4.00423520     -2.36692448     -0.20920952     -6.11546479
    C      2.55186277      2.69971927      9.57133190      4.00576245      2.40215827      3.56986208      3.18533662
    C      3.52313200      0.72098172      8.63564643      4.01851656      0.30373724     -2.54642592     -3.41586882
    C      3.47893144     -0.65274763      8.80175392      3.98210197     -4.66426342      2.30653297     -3.21375901
    C      2.62830618     -1.52091102      7.88729440      3.99347490      1.33159836     -3.89064365     -7.68240526
    C      1.90113286     -0.95006458      6.84896478      4.00304167     -3.10873735      5.62504981     -7.71775183
    C      0.55544053     -1.37306277      6.52935895      3.99797591     -5.01438554      4.43349552     -2.36730216
    C     -0.26109615     -0.22145989      6.26504914      3.97734111      6.03702744      6.63301088      4.78040033
    C     -1.57544157     -0.13058215      6.67117836      4.01219387      0.31506790      7.18956923      2.00363525
    C     -2.12468779      1.05993159      7.22845836      3.98709875     -9.80312089      1.59639372      6.35340301
    C     -2.19050623      2.70692556      9.59858112      3.99466574     -4.62172473     -0.82585899      0.41377383
    C     -3.09550350      1.57593415      9.50266145      4.00635153      1.12443422      0.11650359      8.25037446
    C     -3.04936285      0.74699241      8.33561082      4.00387053      3.95708883      7.27801523     -5.72661173
    C     -3.08584108     -0.71483462      8.46767875      4.02082774      4.48973810      5.51000030     -2.33581203
    C     -2.11131747     -1.19170204      7.51324392      3.97198435     -1.65104446      4.92528017     -1.21151726
    C     -1.34278656     -2.34554677      7.79120056      4.02358574     -2.40820374      2.96245607     -3.03066759
    C      0.01277696     -2.44683920      7.30222802      4.00672620      1.83994029      4.38811580     -4.75670174
    C      0.81283533     -3.02761928      8.38376865      3.99513568     -1.15299330      0.28855773     -5.11491706
    C      2.14007233     -2.62693298      8.66623821      4.00544823     -3.71825520      1.07831449      0.02850470
    C      3.41147008      1.52594592      9.80806025      3.97613978     -4.13190064      3.05706687     -5.76134704
    C      3.46646109     -1.26350670     10.10309955      4.01495808      5.19292790     -1.17509162     -6.20544386
    C      0.06010211      2.12183658      6.93142970      3.99138299     -3.75337847      8.85528215      5.72572514
