  120
MD iter: 599
    C     -1.86480200     -0.55516681      3.06294150      3.99524767      3.67883880      3.90767882      1.93254010
    C     -0.60616713     -1.22125950      3.16278508      4.00797369      0.01077372      5.32502610      1.11124259
    C      0.62138443     -0.57355657      3.15479870      3.98373495     -0.54067489     -5.48315097     -0.53170760
    C      0.69248860      0.91283372      3.11963759      4.01884359     -3.34405755     -7.41034669      0.87775472
    C     -0.56896480      1.59632994      3.03139634      4.00268932     -1.18093630     -6.43020698     -0.50672580
    C     -1.85415331      0.86611164      3.00642792      3.99304349      1.37052075      0.74981692      3.55752383
    C     -2.80096974     -1.30821772      2.26020919      3.99437976     -3.13258133      3.34314044      1.35119952
    C     -2.10047543     -2.49594868      1.82676216      3.99806684     -4.47002402      1.17420073     -5.89313329
    C     -0.75792400     -2.49409482      2.39414443      4.00538959     -5.07230679     -4.85480708     -0.30761251
    C      0.33448267     -3.00408019      1.67085780      4.00613569     -6.11033494      2.48424562      1.97285723
    C      1.78207284     -1.12104850      2.41668286      4.02377985      2.20470322      0.14347068     -3.62160033
    C      1.81027651      1.26140821      2.24470302      3.98642741     -4.86522537     -0.29949931      0.83116612
    C      1.69815179      2.31618275      1.34387383      4.00901981      0.60636145      4.27875697     -2.69193715
    C      0.37956425      3.05064723      1.26894156      3.99677964      3.20998194      0.69697092      0.28960875
    C     -0.69090740      2.70411788      2.05099419      4.00068780     -0.80100606      2.02017122      0.72695862
    C     -2.08504304      2.68434750      1.48068707      4.01359518      5.96682693      1.62546215     -1.12693234
    C     -2.76006633      1.50580734      2.12350493      3.99657822      1.63977916      2.38820300     -3.01262639
    C     -3.63393412      0.80561548      1.30398723      3.99551828      4.13996849      2.97582234     -6.98321025
    C     -3.70042483     -0.64448741      1.43304352      4.01187520      7.97564402     11.21224643     -0.01951490
    C     -2.36501831     -3.01597226      0.54215474      3.99833105     -5.46229415      5.85244648      0.63795776
    C     -3.29948983     -2.29456956     -0.32112991      3.99408086     -5.44721014     -5.30352256     -6.49175522
    C     -3.95041890     -1.16859006      0.07705326      3.98593450     -0.48613583      3.74718656     -4.26734600
    C     -4.11876036     -0.01740749     -0.85263214      4.02676187      4.01300018      9.84671648     -1.58359986
    C     -3.85593171      1.16047570     -0.10299859      3.98475652     -3.15598257     -4.07129527      2.09239129
    C     -3.15416166      2.27801072     -0.64784027      4.01390156      3.98981324      2.33591041      2.35207195
    C     -2.24783962      3.05782147      0.15268803      3.99347913      5.88992858      7.03646846     -4.11940171
    C     -1.12000972      3.43199753     -0.70048437      4.00274186      8.63597027      1.06583630      0.72131737
    C      0.18720431      3.42908970     -0.12475821      4.00110430      6.37107976     -3.27700663      1.84923326
    C      2.47270879      0.03381606      1.81392653      3.97900315     -2.47713758      3.05017608      6.91336498
    C      1.76872803      1.22604294     -2.63541662      3.99714766     -1.54032033     -4.05987017     -1.13317220
    C      2.66809623      0.57564896     -1.74687581      4.00403200      1.72737004     -7.73729729     -3.44719245
    C      2.58028716     -0.88134171     -1.64496228      4.00095653      1.00918449     -0.46651699      3.59278714
    C      1.69456893     -1.61585489     -2.40919011      3.98368483     -1.54176457      1.46279227     -7.50177785
    C      0.84084695     -0.92597813     -3.36598902      3.99507827      1.48813453      1.68645593      3.74136300
    C     -0.42206442      1.19222166     -3.48256968      3.99391004      3.41471668     -2.71996360     -0.30553702
    C     -0.26510070      2.44569226     -2.72187885      3.99528318      1.20015498     -2.19220467      2.95466610
    C      1.12064904      2.44669548     -2.22933684      4.00568999     -3.58804858     -3.65194330      1.13202306
    C      1.30919664      2.96648232     -0.92294617      3.99923973      0.56908928     -1.54848532     -5.32923270
    C      2.23732737      2.24481009     -0.02294889      3.99763887     -4.55401750     -6.62040711     10.19420226
    C      2.95240160      1.08600038     -0.39613650      3.99556124      2.48889858     -4.35796643     -4.24748056
    C      2.82179938     -1.25953061     -0.24260168      3.98761727      3.37126864      0.67619577     -3.52035651
    C      2.13130944     -2.29774074      0.30959002      4.00169806    -11.21610929     -9.84764761      2.05658470
    C      1.21133612     -3.14461297     -0.50483181      4.01656877      2.63373460     -3.43202189     -4.82612052
    C      1.01083406     -2.80374717     -1.89600677      4.02387205     -1.52895737     -4.96837819     -1.31946557
    C     -0.34962756     -2.73527799     -2.43497785      3.98001943     -5.44636826     -0.87079196      1.99004901
    C     -0.43385346     -1.63542435     -3.38559177      4.01408749     -9.67024970      6.39526915      2.96768762
    C     -1.67845249     -0.91540669     -3.46029739      3.99549363      6.20496785     -5.30394409      1.43868717
    C     -1.66084257      0.48719454     -3.53605040      4.00655152     -2.62506543     -0.94152005     -6.51627099
    C     -1.34861794      2.92377878     -2.04350182      3.99119022      2.10431302     -6.96054714      7.92272656
    C     -2.59116710      2.20906824     -2.01295074      3.98980318     -5.09848044      1.21405711      0.98496031
    C     -2.75962151      1.05155402     -2.72291463      4.00005395      0.46038911     -3.16010094      6.87295692
    C     -3.48690325     -0.08909082     -2.18403077      3.99902727     -4.19750039     -0.29227548      0.18730626
    C     -2.82441380     -1.32936652     -2.58687431      3.99798575      0.48541815      9.03886887      7.61346570
    C     -2.73595860     -2.41440801     -1.71133728      4.00397970     -1.76921960      7.55968251     -0.46221666
    C     -1.45509853     -3.15053162     -1.62788556      4.01392939      2.45629689     -3.68925893      2.83429898
    C     -1.23702537     -3.51693196     -0.21079736      3.99790346      3.26954638     -4.39926072      8.11315667
    C      0.04903779     -3.47897483      0.32989951      3.98460169     -7.47078592     -2.54599774     -0.23537656
    C      3.08001160     -0.05269871      0.54483118      4.02262959     -4.62390831     -2.69303689     -0.35366697
    C      1.58242639     -2.27384612      1.66795331      3.97700414     -8.51325663     -7.51831384     -1.73233879
    C      0.80826085      0.46215148     -3.47398866      4.00710255     -0.11591089     -4.16427366     -4.21142562
    C      0.57551671     -2.15668344     12.47014626      3.99897688      0.21108675      0.92823309     -1.99282315
    C      1.91358343     -2.20279314     11.82318045      4.00192766      0.69765830     -3.88626158      2.52743865
    C      2.75761068     -1.09655952     11.93612819      4.00029278     -1.39364893     -1.41947404     -2.16933943
    C      2.34509443      0.12188777     12.65074176      3.99348812      3.00017120     -2.63485724      1.19964989
    C      1.06629495      0.17388013     13.24592748      4.00560722      4.22391949     -5.04682059     -7.27299358
    C      0.21375489     -1.00721677     13.15673347      4.00707835      3.86520159      4.84374305      6.00137846
    C     -0.32407314     -2.82139303     11.58472020      3.99300509      2.79413442     -1.18906765      1.58068779
    C      0.43330709     -3.34621981     10.45020382      3.98073732      4.31831889      7.53354269     -6.90116657
    C      1.84835204     -2.96767610     10.55368910      4.01142427      1.16238936     -7.19805890     -3.35107694
    C      2.56464624     -2.49843807      9.48217083      3.98452676     -0.84404418     -4.19447529     -8.35556756
    C      3.58952212     -0.66306043     10.80189583      4.00566668     -3.75178251      4.51832336     -9.89896317
    C      2.93291578      1.26251616     11.95683648      4.02015787      6.83397397      1.55512945     -5.89473948
    C      2.07955401      2.37267589     11.82493604      3.98410063     -0.33981707      1.63313811     -0.31553104
    C      0.78712113      2.43431491     12.48880223      3.99532613      1.85555618     -0.93600829     -4.51248757
    C      0.24857950      1.37029615     13.19334303      3.99599102      9.19966893     -5.01917785     -7.80344647
    C     -1.12773513      0.93845662     13.04113509      3.99238936      3.47022998      4.85634899      0.44723276
    C     -1.18560317     -0.48215050     13.01119313      4.00260128     -0.47600141     -8.39930559      1.68760823
    C     -2.08986324     -1.15595799     12.16543578      3.98658556     13.63911169     -6.29178046      5.04450460
    C     -1.66537347     -2.32972219     11.44287814      4.00630612     -1.13911078      4.94141713      3.99850651
    C     -0.17343635     -3.39314066      9.14859598      4.02252649     -0.14751450      8.96713822     -4.89933164
    C     -1.48839076     -2.80800107      8.99876088      3.99188470     -3.80906855      1.78507977     -1.30858009
    C     -2.21621914     -2.31972758     10.07064992      4.00210110     -8.23680497     -4.85858020      0.30702692
    C     -3.06334068     -1.10712409      9.97440550      4.02754261      4.04947738      3.69932100      7.65840453
    C     -2.95283454     -0.38322040     11.31488334      3.99507422     -5.96111196     -0.51771678      0.38542864
    C     -2.90336061      1.00608171     11.31582841      3.99716067      0.65462788     -7.38903809      0.90865552
    C     -1.99941497      1.73085298     12.18519212      4.01854610      6.83462105      3.49112907     12.03176557
    C     -1.41969718      2.88092151     11.47709959      3.97338163     -0.13641341     -1.84963557     -1.31717981
    C     -0.10692060      3.26321198     11.64636369      4.02241670      3.97647206     -1.97794466      1.51317421
    C      3.62100553      0.79743693     10.76522797      3.98885879      2.65558419      7.06677248     -0.72436935
    C      0.79583485      3.26195274      7.97275188      3.99699681      2.20340952     -7.07205473      7.39259583
    C      2.11804963      2.77623413      8.12543024      4.01252946      3.73180767      2.85644597      0.75417593
    C      2.51767418      1.57727458      7.41111427      4.01311633      2.12466398      1.53597110     -0.95848145
    C      1.61006020      0.87916029      6.58407696      3.97656366      1.51171425      8.22785010      5.12826917
    C      0.29417585      1.43290892      6.39729361      4.01015915     -0.91945788      5.59281029      0.18159770
    C     -1.44002924      2.62807990      7.77319085      3.98171864     -7.53727950     -6.03550627      0.00929887
    C     -1.35237617      3.44533324      8.99259226      4.01924607      7.56800327     -5.83040242      7.04094625
    C      0.05789697      3.79736735      9.15343028      3.99936706     -7.12377091      2.92462076      4.07313469
    C      0.64197911      3.68101741     10.40240007      3.98255371      3.23987566      4.82465809     -1.92001103
    C      1.96398484      3.18108801     10.60229787      4.00419415      0.17382849     -0.29212047      4.19264963
    C      2.69738429      2.75003917      9.49926836      3.99084110     -0.71353760     -9.15523461      0.81184907
    C      3.40940070      0.81180998      8.31631612      3.99519643      1.81957186      3.89878948     -1.92867012
    C      3.38936636     -0.57467232      8.29262901      3.99353540     -3.47347708     -5.67991204     -0.83308629
    C      2.45927505     -1.33157698      7.38746735      4.00217035    -10.37276359     11.09373002     -1.68363800
    C      1.60402749     -0.59003484      6.54258840      4.00552220     -4.71985363      8.07295484     -0.11452286
    C      0.21453825     -0.95515998      6.43356605      3.98965532      0.95812251      4.61112980     -2.20968345
    C     -0.60756320      0.26415245      6.38008950      4.01575800      0.28518893     -0.05308076     -3.47389965
    C     -1.82921352      0.30905028      7.01808945      3.98164373     -2.31976121     -2.38136366     -5.19947406
    C     -2.28092820      1.52078041      7.68849477      4.00761039     -0.89899881     -2.16151956      4.27745195
    C     -2.09971892      2.94282065     10.16710206      4.01526861      4.73615462     -0.38712956     -0.35463791
    C     -2.94325265      1.75472053     10.04654644      3.98580334      1.51521065     -3.17127684     -0.93040372
    C     -3.09322111      1.07897578      8.80930834      4.01840216      1.30314092      4.08443248      6.90891839
    C     -3.10133152     -0.39652282      8.76495355      3.97255328     -0.49885023      6.99219693     -1.09112232
    C     -2.38745041     -0.84069011      7.65112069      4.00417691      2.28312674      4.60294960      0.27099945
    C     -1.59900029     -1.99012348      7.73190244      3.99580930     -6.58208405      5.69425227     -2.92466412
    C     -0.30902773     -2.07630420      7.10800621      4.01361462     -3.44727414      4.24208673     -7.57356752
    C      0.61408874     -2.89904604      7.98606085      3.99582551     -4.36838829     -0.04867149      4.38113166
    C      1.94825132     -2.48801176      8.15225508      4.00274903      2.57381157     -3.63330369     -0.44510243
    C      3.50886920      1.54667116      9.56790990      4.00555925     -0.58989885     -0.76278231      1.08542636
    C      3.49419308     -1.29359232      9.53264643      4.00700170     -4.91461987     -1.52737795     -4.09254422
    C     -0.14074829      2.57876497      7.10265838      3.99997398      2.70469692      3.90432901      5.13582255
