  120
MD iter: 959
    C     -2.08988595     -0.15482099      3.20218903      4.00736151     -0.49172611      1.97069674     -2.19862844
    C     -1.19654086     -1.30788323      3.26299264      3.99562679      3.69351786      3.74331762     -1.09059969
    C      0.20752410     -1.14052537      3.28719141      3.99778570     -8.36887628      0.43534774     -1.14636732
    C      0.70508326      0.19823050      3.19098013      3.99830653      4.10137655     -1.86005924      3.01462892
    C     -0.15139317      1.32894803      3.04156534      3.99591583      1.15172108      9.97794396      0.25288311
    C     -1.60857160      1.18611774      3.08417778      4.00425293      6.74406559      6.37984473      2.11062129
    C     -3.28957534     -0.54543712      2.38269079      4.00076362     -0.22993270      5.41750066     -4.76452712
    C     -3.06622493     -1.91569809      1.99217666      4.01216612     -1.87853438     -2.89920750      2.90721193
    C     -1.73816516     -2.37557629      2.50163755      3.99013165     -4.26161705     -2.06726237      4.15541855
    C     -0.92523544     -3.24505845      1.77705717      3.99373607     -3.29990248     -6.24122281      2.26576308
    C      1.08561341     -2.00430271      2.50303830      4.00381768      3.69655686      6.85320169      1.46953005
    C      1.89764701      0.25609211      2.37239329      3.98035726     -2.09707049     -5.43054863      2.15787437
    C      2.22420206      1.25607482      1.46040668      4.02586746     -0.10859277     -3.37319518      2.12123319
    C      1.26432936      2.38754170      1.29088768      3.99643192     -2.85694544     -6.76356464      3.85825488
    C      0.17129649      2.37470452      2.11562900      3.99375752      3.19861994     -2.48716899     -2.52234359
    C     -1.11174840      2.88811920      1.55914839      4.01952292      2.38563191     -3.77946351      0.47953271
    C     -2.21073527      2.06499962      2.13014732      3.99281837      8.27248548     -2.02085913      2.14536895
    C     -3.32289577      1.71906079      1.33521468      3.99721341     -0.43161806      4.52016256     -2.25708979
    C     -3.89066479      0.37361886      1.47906104      3.99857112      0.63123448      2.76806176      3.24910671
    C     -3.45132409     -2.30719897      0.67727950      3.99397270     -9.33581448     -1.92071160     -8.11819995
    C     -4.08461505     -1.40987899     -0.28898882      3.99922403      2.03354692      2.86770810     -0.63841682
    C     -4.30988851     -0.08076265      0.12920353      3.99843801     -0.64851602      1.24433443     -4.18339879
    C     -3.97905995      0.99479476     -0.80156208      4.00017476      2.60443342      1.25181343      1.55621056
    C     -3.38946732      2.12867878     -0.06198471      4.01341282     -2.22985135     -0.64011393     -1.46501094
    C     -2.33349511      2.84681284     -0.54518297      3.97504203     10.25774646     -1.21729065      2.20248539
    C     -1.19347869      3.28879149      0.21259049      4.00219361      1.42764517     -0.99529360     -1.31609587
    C      0.00131734      3.25698766     -0.64698697      4.00542834      0.34698976     -2.24730148      1.78028921
    C      1.21321510      2.81537712     -0.12113637      3.99260245     -1.15960567     -3.65617743      0.67063765
    C      2.21257985     -1.14497443      1.95294588      4.01585726      3.76790676     -0.76257766      4.13053441
    C      1.91265862      0.15950209     -2.54777729      3.99590043      1.89592029      1.92353183     -2.36713308
    C      2.49589687     -0.74108142     -1.63430591      3.99618713      7.94195353     -6.87372659      5.40329048
    C      1.91053591     -2.08366017     -1.54780363      3.98975629      2.32118891     -2.20604676     -1.47439156
    C      0.86457813     -2.51856705     -2.34025524      4.01857967     -6.91881429     -2.00985152     -1.13039629
    C      0.22816767     -1.55374910     -3.23491671      3.98774775      5.36880777     -2.30222355     -0.47714783
    C     -0.18331411      0.87874017     -3.47055735      3.99767905      7.24071599      0.79753022      4.96542494
    C      0.45165925      1.99509931     -2.74943105      4.01868260      8.70790280      1.00641341     -1.72279850
    C      1.71349233      1.51875400     -2.16446740      3.98894040      7.26271226     -8.53283628      2.78558888
    C      2.13427102      1.92818934     -0.85430261      4.00937108     -1.97275061     -3.92386776     -2.74208521
    C      2.74479381      0.97289569      0.05722838      3.98436250     -2.28629838     -6.90094521      0.14966671
    C      2.95816954     -0.33090233     -0.33881860      3.99597751     -1.83056183     -2.13557670     -0.15289872
    C      2.01400108     -2.52919112     -0.13465802      3.98252012     -2.08123134     -3.76158143     -0.04801991
    C      1.05880095     -3.31903775      0.42804826      4.02371480     -7.61628559      4.18357513     -7.05929428
    C     -0.12206806     -3.64717100     -0.37943172      3.98762017     -6.55094649     -5.70129357     -0.78268494
    C     -0.22149549     -3.27416075     -1.74034891      3.99828159    -10.16708376     -4.35097715     -2.61681559
    C     -1.48232029     -2.88515466     -2.34073974      3.99135266     -3.66602240      0.63471510      0.62812640
    C     -1.20143704     -1.81758605     -3.26584540      4.00772922     -4.91733275      0.94413275     -0.54067093
    C     -2.10493590     -0.66854954     -3.34276366      3.99619375     -3.77018896     -1.11162953     -1.41987123
    C     -1.58086874      0.69051898     -3.43564173      4.00175225     -6.11873665     -0.08514178      0.79434663
    C     -0.44062672      2.82224282     -2.00256946      3.98365111      1.88815479      1.93016252      3.04419994
    C     -1.86027891      2.62740725     -1.94792630      4.01705151     -5.07587669      2.66654101     -4.42808132
    C     -2.41013536      1.55733210     -2.64940220      3.98673219     -0.67335890      0.14546372      5.42332826
    C     -3.46830204      0.69952870     -2.08930145      3.99483244      1.62637145      0.75566029      3.41603602
    C     -3.32735214     -0.66144652     -2.51509325      4.01495292      2.30574524      2.43552510      3.07034340
    C     -3.57835008     -1.73711340     -1.59070117      3.99057407     -2.46718388     -0.84592928      1.63777375
    C     -2.64268315     -2.87744542     -1.48684934      4.00898769     -1.14898960      8.84589101      0.46947877
    C     -2.59485201     -3.19558932     -0.09780836      4.00536447      0.23082433      7.46504339      2.05084488
    C     -1.29698100     -3.67260102      0.44649272      4.01257635     -5.85811604      1.88774171     -3.97075308
    C      2.68099042     -1.44200759      0.63090772      4.01148802     -5.40188787     -2.60556064     -1.57996300
    C      0.48911704     -3.01480565      1.79962309      3.98637711      1.34197576     -8.43538410      8.46546035
    C      0.77322207     -0.24384169     -3.34787122      4.01371340     -9.80042996     -2.62188456     -1.11482765
    C      1.22494274     -2.53857482     11.47814926      3.97757280      4.83039837     -7.31834982     -1.83414725
    C      2.33450918     -2.49753144     10.56865329      3.99900144      3.35762647      0.11024516     -4.06335934
    C      3.29904607     -1.50144352     10.64683350      3.99567623     -3.85692471      4.79662885     -6.55733287
    C      3.17071334     -0.53229487     11.75392532      4.00903637      4.45167779     -0.23036359     -3.06071073
    C      2.11809465     -0.59689763     12.67523952      3.98829595     -5.05790537      4.29431394     -6.03474562
    C      1.14130059     -1.64010387     12.54788531      4.01418996      6.33951691     -5.42419233     -0.42748326
    C      0.01354594     -3.00069262     10.80592333      4.02360215      5.53896562     -2.61451188     -6.09697567
    C      0.35764209     -3.18196552      9.40210301      3.97550736     -4.44055571     -2.35459217     -5.89261085
    C      1.80015442     -2.94875262      9.25271985      4.01959509     -1.95164619      1.41445906     -3.24702274
    C      2.18418630     -2.28074252      8.10496652      3.98655937      3.64431921      1.19837607      2.02324637
    C      3.75577543     -0.84360030      9.43558221      3.99931060      0.78118823     -3.72870609     -1.39770030
    C      3.60614227      0.76634820     11.22632130      4.00156426      8.51464667     -5.77788133     -4.49745606
    C      2.93664059      1.94353212     11.62242375      3.99383217      1.60404786     -2.60531613      0.68108213
    C      1.87352648      1.89821574     12.55576435      3.98730489      2.20117613      1.30869132     -4.14429820
    C      1.49711779      0.64917375     13.12856293      4.01669814      2.72333118     -4.22302848     -0.26435421
    C      0.09864402      0.37501869     13.25785845      3.96827509     -3.18325035     -6.58736106     10.72724081
    C     -0.14153168     -1.03205472     12.96782777      4.01590995     -0.75725286     -0.46192633      0.01727428
    C     -1.28779086     -1.45379964     12.24927817      3.98643332     -0.89467319      8.35375937     -3.28723980
    C     -1.22277703     -2.42220345     11.17182507      3.98905593     -6.19959978      0.08708252     -4.32965396
    C     -0.60848827     -2.87834273      8.42930716      4.00738202     -6.88569948      2.33036228     -4.03188607
    C     -1.84200167     -2.28419188      8.79624323      3.98303228      3.19387328     -0.80360048     12.20900590
    C     -2.17263951     -2.04517885     10.13765966      4.00353674     -3.75319529     -1.97374020      3.54930039
    C     -2.81334263     -0.81644013     10.57421777      4.00588061      6.87394285     -2.29611311      7.03261720
    C     -2.27182009     -0.43414285     11.93598619      4.02630395     -1.78354544      0.78117397      1.90261444
    C     -2.10452548      0.93860733     12.19390559      3.96551936      8.52014790     -3.47307332      5.10712334
    C     -0.90514378      1.33068134     12.94220718      4.03487038     -0.86251482     -0.40923979      3.53689455
    C     -0.52271378      2.63071355     12.34588167      3.97784804      3.10996782      0.61474882     -1.67431841
    C      0.84171294      2.91790821     12.18537619      4.02311115     -0.47110079     -4.38006819     -1.46833405
    C      3.99000186      0.59958129      9.79550892      3.99656978      2.30329221     -2.18808804     -7.21461871
    C      0.79495688      3.77616825      8.62762887      3.97289044     -1.71006590      7.08095966     -0.18415400
    C      2.01450187      3.19615511      8.25610253      4.01020533     -3.28501346      4.74137938      2.52259092
    C      2.13587615      2.23500130      7.14997588      4.00613189     -8.63517977      3.77797508      4.83802502
    C      0.97399973      1.83256324      6.45560283      4.00231829     -3.78459594      6.72508976      5.01639614
    C     -0.33262420      2.42204811      6.88203861      4.00284962      3.84157126      1.22131167     -2.59486640
    C     -1.55418393      3.38912218      8.84289790      4.02859603      1.80612544     -2.78314108      5.14852171
    C     -1.05279973      3.66694084     10.15777493      3.96464333     11.34800549     -0.14147748      3.33190709
    C      0.39182026      4.03688391     10.00498197      4.03873412      1.13356259      8.15522450      7.00886493
    C      1.34817337      3.57381108     10.95531643      3.98055449      6.85519011     -4.26683657      3.52945879
    C      2.62867669      2.97874688     10.60585477      4.01258592      0.51101680     -3.65741548      2.36901773
    C      2.94412622      2.76355288      9.28184696      3.98377885     -0.96931286      1.37174183     -7.84084782
    C      3.08368063      1.16410556      7.53790925      3.97623131      4.83218523      7.57835999     -5.67114236
    C      2.95284287     -0.17177658      7.17066162      4.01102414     -6.73734535      2.41368597      1.30491366
    C      1.71141552     -0.56739358      6.49557128      4.00692614     -4.75411390      0.84334973      2.05258821
    C      0.74614183      0.46565221      6.18328562      3.99018514     -4.33650173     -1.21826750     -8.56070570
    C     -0.60523297      0.12512609      6.37730240      3.98158152    -10.71610958      1.05741153     -2.57259221
    C     -1.31896179      1.31781491      6.77869835      4.00631086      1.55885878      0.38779575      1.45192053
    C     -2.34678105      1.28979310      7.72080021      4.00071205     -1.31311889      3.38548826     -1.57184103
    C     -2.47189338      2.26239986      8.77341037      3.98201046     -3.78162205      2.93170729      6.91999550
    C     -1.48906326      3.01578028     11.32596546      4.01504086      5.81626329     -4.53727054     -3.87568613
    C     -2.50144144      1.93394192     11.24988719      4.01100682      7.62604652      6.06692487     -3.90247084
    C     -2.96645065      1.59051475      9.93379406      3.99578223     -4.06917090      3.41524599      5.58202767
    C     -3.14360962      0.18442582      9.64080027      3.99031879     -3.35298154      2.36566467     -1.51664430
    C     -2.80884622     -0.02122876      8.28994460      4.00468660      6.67399069     -2.08926637      4.91004040
    C     -2.17088167     -1.18985534      7.83675903      4.02287083      0.87329252     -1.26016678     -1.12633382
    C     -1.01154583     -1.09993898      6.83464626      3.99959162     -2.50749419      3.46229646     -8.72096611
    C     -0.11845545     -2.17325655      7.16874211      3.99988580      3.34576848      6.23429076     -2.03045990
    C      1.23231467     -1.87404420      6.99949788      4.00718627      2.61943467      7.00549029      2.60924733
    C      3.66965522      1.55125410      8.83330045      4.01553131     -3.96216769     -1.97327064     -1.95810182
    C      3.23874979     -1.20938082      8.18966891      4.00271583     -0.17691509      0.78750694     -4.64590603
    C     -0.40225204      3.41756965      7.86612658      4.00623704      0.63509036      2.19313718      1.41206860
