  120
MD iter: 799
    C     -2.01093638     -0.29138307      3.10989381      3.99334732      3.54798272      6.29763039      1.01009227
    C     -0.99025275     -1.27851294      3.18350478      3.97911093     -2.02497268      1.24014289      3.71813496
    C      0.35214688     -0.92027435      3.16138225      4.01372544      2.83258483      3.26014880      3.52692988
    C      0.63967667      0.50768725      3.08411853      3.99454952      0.07441374     -0.55587848     -6.49405803
    C     -0.33289287      1.50669626      3.02913755      4.00152651      1.83502928      1.96640770     -0.40594164
    C     -1.72025132      1.07735908      3.03377475      3.99812335     -2.87238013     -3.75231730     -1.69889895
    C     -3.07402293     -0.85843186      2.30538817      4.01851418      0.15754502      6.71776771      2.26317904
    C     -2.64397494     -2.21044711      1.88298132      3.98173780     -2.14095968     -4.28151895     -0.22160395
    C     -1.36423813     -2.48206845      2.45838116      4.01711588     -5.06700674      3.41046858      2.51254663
    C     -0.42683922     -3.15618205      1.69464554      3.98665160    -10.16347076     -6.39613532      0.71128086
    C      1.34956032     -1.60925584      2.40336300      3.97860635      0.80045674      1.23728474     -1.20303333
    C      1.86557991      0.67551937      2.32467708      4.00072844      1.56503132      0.15797355      2.05663388
    C      1.99297039      1.78317668      1.39255760      4.00832262     -1.16732681     -7.87572708     -1.14467630
    C      0.95599273      2.77772085      1.27962367      3.99346461     -0.86918689     -5.51266593      0.16452388
    C     -0.19667927      2.64062056      2.13091101      4.00741770      2.75120512     -3.47419650      3.67955934
    C     -1.50922587      2.87553123      1.52464436      3.99361030      0.43604737     -1.01260756      0.78730217
    C     -2.46394666      1.91663891      2.11770483      4.00689977      8.54675530      2.72175575     -4.22726481
    C     -3.48865541      1.38868210      1.29364278      4.00390131      4.27783510     -5.02944446     -0.15462314
    C     -3.77174705     -0.02860016      1.39980224      3.99658249     -0.07393367     -1.00193271      1.90008675
    C     -3.00717724     -2.68464734      0.64702408      3.99803803      2.84142942     -1.45926226     -4.12015794
    C     -3.79032797     -1.84886893     -0.31875717      4.01065212     -4.61563560      0.57166830     -6.51350273
    C     -4.13768730     -0.52359463      0.07046938      4.00116188     -9.56745860      0.48917913     -3.29122985
    C     -4.02695631      0.56367084     -0.84304092      3.98030138      2.06496203      3.40501161     -8.02379771
    C     -3.66827592      1.74376961     -0.11097671      4.00714659      4.84245813     -3.33897611     -6.34356667
    C     -2.74215791      2.73307186     -0.59778001      3.99986273     -0.15942708     -1.57175715      4.71862707
    C     -1.68567878      3.27429145      0.18403052      3.99066465      3.07922959     -3.29441661     -5.44541382
    C     -0.50757548      3.40913356     -0.68027594      4.00779412     11.16095452     -2.50629734      6.45744641
    C      0.80066251      3.14623426     -0.11930229      4.00581979     -3.52753457     -3.32054477      1.07814017
    C      2.28423289     -0.63211708      1.90622687      4.01878333     -0.34394745     -3.02335925     -2.22673540
    C      1.86784902      0.56966320     -2.58531209      3.98497494      4.82817517     -0.49295242      5.34492884
    C      2.58579430     -0.21375934     -1.72571273      4.00442127      2.93683503      1.39369279      3.04004468
    C      2.28318454     -1.62464990     -1.60085394      3.99639289     -2.40207806     -6.02793327     -2.49516767
    C      1.24268345     -2.15018945     -2.38021717      3.98843277     -2.21946946      0.21367667     -4.84602702
    C      0.51935789     -1.33456868     -3.29620688      4.01192354     -1.27197736     -1.76459943      1.47538944
    C     -0.26902833      1.00669192     -3.52509874      4.01010138      1.01212544     -2.98516257     -4.09794954
    C      0.15703974      2.17287718     -2.72746979      3.99621944      2.52171441     -6.87097917      3.53480810
    C      1.46370275      1.92304337     -2.15953599      4.01315360     -4.76971627     -4.09187983     -5.25148279
    C      1.75157929      2.39689228     -0.87122764      3.98611397     -0.26985715     -0.29595748      0.72431223
    C      2.50050075      1.55686377      0.02051095      3.99720491     10.42018046     -9.85539380      1.64527874
    C      2.90798341      0.25976202     -0.37941004      4.01207494      5.07286504     -2.15441005     -2.42573193
    C      2.45128521     -1.99082672     -0.23750015      4.01340323     -5.75310375     -0.92832443      3.53135050
    C      1.48068288     -2.94734298      0.37279001      3.99672451      1.20303812     -7.76674006      3.16819165
    C      0.46025687     -3.54392857     -0.46307552      3.99129701     -6.49957281      5.56283000     -6.38325244
    C      0.36230993     -3.16452245     -1.78469501      4.00309439     -7.02311734      7.02630130      4.99178867
    C     -0.99374134     -2.89227797     -2.36199590      4.01782007     -8.38609225     -2.33565950      1.99985778
    C     -0.87094450     -1.72522064     -3.27081371      3.97772963     -4.07157870     -5.05861809      0.44559247
    C     -1.92155559     -0.82474054     -3.37102084      4.02458576     -6.68321034      3.34524665      4.42494270
    C     -1.59106122      0.60974524     -3.47718852      3.99120833      9.99679635     -3.82703011      0.70239044
    C     -0.79383971      2.88895015     -1.98617060      3.99920759     -1.95488854      4.61535878      1.61276871
    C     -2.20198704      2.48196652     -1.94188878      4.01041963      6.12640216     -2.62596232      0.18771076
    C     -2.59193977      1.33655286     -2.67313232      3.98658680     -9.45273214     -0.10136071     -3.41662581
    C     -3.53050125      0.41585595     -2.14642218      4.00901589     -1.88723729     10.53179017      4.88462956
    C     -3.08810955     -0.95306030     -2.47196242      3.98985555     -1.99804368      7.92609920     -1.32182545
    C     -3.19269085     -2.05779560     -1.63450205      4.00820753      0.20738208      9.92064650     12.48496718
    C     -2.07476694     -3.04630771     -1.54518321      3.98525288      0.35919762      9.16170692      4.41828027
    C     -2.02539761     -3.44414200     -0.12004142      4.00294122    -10.17487181      5.22335653     -0.61179701
    C     -0.71169834     -3.68223677      0.36682174      4.00811383      0.03716856     -9.40672949     -0.26392726
    C      2.77078973     -0.87313376      0.54232639      3.98454942      2.45489247     -5.42328231     -0.99550162
    C      0.97190599     -2.74769132      1.68062964      4.01262289     -9.12796419      4.63631472      4.16244985
    C      0.82740521      0.06538298     -3.39318161      3.99136866      1.69778490     -1.34079276      2.73219156
    C      0.98453083     -2.40828294     11.94555105      3.99652996      3.12081791     -1.42853714     -2.45449368
    C      2.20511268     -2.41355769     11.13692748      4.02608344      2.86375690      0.45255669     -1.49520686
    C      3.13606601     -1.32384643     11.25328284      3.98395113      6.03714482     -6.11327014     -9.09858598
    C      2.89074453     -0.27344188     12.20182630      4.00837534     -8.11994904     -5.95243167     -6.48367321
    C      1.69781236     -0.25607533     12.94079947      3.98206241      1.66797147     -9.73280457     -5.79353209
    C      0.78114006     -1.35579108     12.84107537      4.00027623     -1.32486865      0.33017190     -3.59032141
    C     -0.10927520     -2.89603007     11.15454576      4.00344765      3.41618746     -6.30317018      0.46223143
    C      0.43354034     -3.21176483      9.82964281      4.01227011      0.14110784     -6.50025047     -9.22864103
    C      1.80960515     -2.89930207      9.84426992      3.96811804      4.29495498     -5.10318170      2.43666197
    C      2.43596254     -2.45063673      8.60767149      4.02833596     -1.65254584      0.45142028     -7.22531082
    C      3.71630969     -0.79147171     10.05234665      3.98919239     -0.80922258      1.24648268     -2.95584121
    C      3.34064561      0.94237471     11.58991845      3.99031615     -5.72713525      0.27022858      0.55001315
    C      2.63564218      2.16802910     11.79838932      4.01662835     -2.99792698     -4.46703332      3.14441035
    C      1.43453734      2.15704496     12.60577285      4.01552023      4.73988266      4.54773725    -10.08992399
    C      0.99059173      0.94825355     13.12920592      3.97884047     16.58590074     -2.89087489     -6.99961576
    C     -0.44980259      0.65987217     13.25933571      4.02073626     -7.60405359     -1.02717415      2.06336968
    C     -0.53937542     -0.79848809     13.03208942      4.00302842     -2.35370811      1.95685112      6.48798635
    C     -1.56734051     -1.29280213     12.25374189      3.99144411     -4.62802687     -1.02512649     -4.03202281
    C     -1.37173728     -2.35592850     11.30951478      3.98775569      8.93616916      2.15979725     -4.81943988
    C     -0.40190227     -2.95451493      8.73636769      3.98381715      1.64951114      9.33338206     -2.04403323
    C     -1.73370658     -2.45314720      8.81554891      4.01082057      0.22746425     -0.85084952      3.61280687
    C     -2.23351046     -2.14611962     10.17552792      4.01469306      6.18696329     11.41351213      1.92249504
    C     -2.94097684     -0.91103330     10.37024183      3.98956992     -2.54290274      0.10916034      2.36924126
    C     -2.57574489     -0.38040951     11.69144286      4.01025808      3.99285767     -2.28120049     -4.19958029
    C     -2.52689181      1.01373420     11.83143159      3.99935649      0.60007929     -2.47560088      1.29857858
    C     -1.40479966      1.50903000     12.68736476      3.99276060      3.50826257      0.03359876     -1.33756788
    C     -0.94923087      2.77811246     12.04015352      4.02546959     -1.33100871      0.17637824     -0.19356213
    C      0.44050266      3.09471089     11.97386429      3.97949377     -0.95956671     -2.81149623     -0.69647639
    C      3.90047755      0.66331037     10.23892625      4.03181650      3.24242474      6.85772099     -6.36541475
    C      0.77982377      3.55659316      8.34975831      4.01927043     -3.23033769      2.87221219      2.07877973
    C      2.09419856      2.97962002      8.23571306      3.99207931     -9.70494622     -7.62750492     -2.53595021
    C      2.30687599      1.90385785      7.28915388      3.99433563     -9.19193411      3.52275346     -6.85302078
    C      1.23853273      1.41338789      6.51793819      4.00500049     -4.05223255      8.96851298     -5.78800171
    C     -0.11795821      1.97495010      6.64498429      3.98964833     -4.20099011     -3.40596470      7.98881522
    C     -1.52903416      2.97312077      8.37717314      3.99334528      1.79617503      6.89982018      4.47791503
    C     -1.18497188      3.48722636      9.69859235      4.01736685      3.87579642      2.70386019     11.93126426
    C      0.23572683      3.86497555      9.67250420      3.98250402      1.00270591      0.05026604      2.94150171
    C      1.05007110      3.69425000     10.82169156      4.01658134     -0.68029726      4.97470999     14.42063400
    C      2.38160448      3.08608367     10.67745514      3.98677532      6.05728802     -2.68999112     -2.34796209
    C      2.90737994      2.73415505      9.39475163      4.00637678      1.50403905     -3.48401032      0.86722888
    C      3.30519142      1.02796482      7.85106354      4.02379703      0.07955544     -5.11482066      7.53599412
    C      3.12319437     -0.37582624      7.65752237      3.99503137      3.15364064      1.25006228      2.45832913
    C      2.00105055     -0.89486507      6.90584080      3.99869953     -3.46919923     -1.27696235     -3.90350631
    C      1.10329766      0.01002806      6.32518736      3.99403325     -3.51647900     11.17884343     -1.10046381
    C     -0.30280276     -0.31863813      6.28727399      4.00465023     -1.40445157     -2.19189540     -1.15806685
    C     -1.06212655      0.90891729      6.50182586      3.99688929      2.31159606      3.03710541     -4.27785835
    C     -2.23645549      0.85304263      7.30384823      4.01472811     -4.32954955     -1.49097548      5.23358337
    C     -2.48692158      1.94673792      8.25164084      4.00862318     -0.90684541     -1.19440593      3.31023655
    C     -1.75134975      2.93976590     10.85103288      3.97538405     12.41444142      3.28507312      0.17135717
    C     -2.72815401      1.87854500     10.69021867      3.99689662      5.99509480      6.40532427      7.66026174
    C     -3.06786534      1.36195581      9.43767783      4.00069434      5.96245399      8.21269412      4.26680678
    C     -3.14405597     -0.09659032      9.29023135      3.99769395     -0.21820341      0.41425332      1.21474080
    C     -2.61495673     -0.37233353      7.99315119      3.97855349     -9.41605658      2.07613261      2.08622682
    C     -1.93893225     -1.56587434      7.68597648      4.00571298     -1.48770590      5.35783715      3.16955302
    C     -0.76510383     -1.53644424      6.86389505      3.99580656      5.44543621      0.28275536      7.81808705
    C      0.17250096     -2.43462584      7.48741109      4.01125861      3.84508153     -1.17037007     -0.94177212
    C      1.55219273     -2.17085422      7.49096035      3.98900614      1.22108531      4.59558190     -4.15432154
    C      3.62111525      1.54854536      9.18765274      3.96249649      1.34477144      2.69822533    -10.45481337
    C      3.39329858     -1.34060482      8.77501404      4.00817911     -8.35249705     -0.54459103     -4.20557584
    C     -0.31563815      3.01053806      7.53747557      3.99843460      3.84229634      0.75781839      6.37288170
