  120
MD iter: 899
    C     -2.02588277     -0.18645312      3.11156493      3.98666907      0.62737018      2.30615417     -2.58408329
    C     -1.08613028     -1.29403591      3.19826554      3.99612524      3.83269943     -3.92690024     -0.84751373
    C      0.30192489     -1.01209807      3.20979194      4.00177021     -3.81914845     -4.04557221     -4.98635334
    C      0.70080428      0.40345516      3.15872611      3.99566441      2.67445927     -6.99738638     -2.68695360
    C     -0.23000015      1.48712964      3.10148157      3.99923041     -6.48814061     -0.13528830      3.43555642
    C     -1.61601266      1.15874943      3.08251905      4.00370818      0.22225445     -0.31650452      3.50590390
    C     -3.17983462     -0.65066923      2.35514076      4.00365505      1.92178161      5.28529540     -1.49516095
    C     -2.93436203     -2.05643860      1.92774844      4.02546181     -2.98567088      2.22927400      6.06446272
    C     -1.58976550     -2.45136821      2.51352696      3.99271675     -7.07283566     -1.81231405     -2.58291915
    C     -0.75897038     -3.30646070      1.77492652      4.00594944     -0.99215446      0.82040580      9.68721467
    C      1.17386738     -1.83937385      2.42386158      4.00388990     -3.77519722      0.70496051      0.59366263
    C      1.90693178      0.47769687      2.33829159      4.02686334      0.50729901     -3.41228916      4.65431437
    C      2.07861268      1.47480455      1.39067197      3.96830273      3.67966307      3.41203088      0.86571675
    C      1.14722719      2.56678685      1.35891189      4.01395932      6.11033696      1.47024334     -1.76296817
    C     -0.00803331      2.60988472      2.18856181      3.99791220     -0.60338259      2.35442657     -2.16891609
    C     -1.31241662      2.97550201      1.59220568      4.00142308      1.78274096     -5.12910356      7.41618513
    C     -2.30785085      2.12818352      2.16139040      4.00048086      4.18944581      2.56873470     -4.67868947
    C     -3.37218308      1.62205381      1.33464969      4.01451519     -1.21735987     -0.53833158     -3.16392697
    C     -3.83334453      0.19761448      1.43138136      3.99978127      4.75043306      0.27674047      4.53936401
    C     -3.24207072     -2.48083217      0.62318968      3.97591012     -5.22314118      5.44733175      0.61249250
    C     -3.93919393     -1.58324815     -0.29333118      4.01827551     -3.05086543     -2.59924154      6.08759981
    C     -4.22267313     -0.27395011      0.10748772      3.98332844      1.44393202      2.24415788     -1.37382119
    C     -4.00653798      0.83013245     -0.79829140      4.01155536      1.89735342      0.62889581      2.41462802
    C     -3.48125437      1.98220956     -0.04885042      3.97689478     -1.53158237      4.02560843      6.85338925
    C     -2.52746091      2.90355775     -0.58159687      4.03159450      2.36773105     -0.95022983     -1.08259777
    C     -1.36240128      3.33345474      0.20549022      3.98498696      3.59421143     -0.23838107     -6.50716811
    C     -0.15182056      3.36592761     -0.63578444      4.00371781     -0.22228443     -3.64394957     -5.00553938
    C      1.03798249      2.93967853     -0.06956226      3.99264881     -0.17218621      1.74701961     -2.60147550
    C      2.13910620     -0.91968476      1.85973212      3.98327517     -3.05052421      0.06299167      9.52764613
    C      1.92200691      0.26706352     -2.54990804      3.99116195      2.66545502      4.18283775      1.13887337
    C      2.54402934     -0.59814325     -1.66228931      3.99159095      1.46450165     -9.77883142      1.69365269
    C      2.08032323     -1.98102484     -1.58987840      4.00106164      3.43698473     -4.84189548      2.94428503
    C      1.04115969     -2.47045194     -2.41341023      4.00052625     -2.54542033     -9.73956696     -4.37785069
    C      0.36576111     -1.55635732     -3.29280839      4.00110914     -4.99326106      3.54119228      6.20224644
    C     -0.17294086      0.94805624     -3.44530343      4.00711722      3.17806667      3.33718192      5.50296135
    C      0.30300603      2.07224751     -2.66163531      3.97819288     -0.59909324     -7.62865456     -2.67393715
    C      1.64475551      1.65012971     -2.16625104      4.02149825      1.51208563     -3.53542134      1.99626354
    C      1.94742738      2.08063512     -0.83982745      3.99448584      3.71199687     -5.26578789     -1.41302348
    C      2.58783161      1.17298196      0.06164323      4.00074695      1.54045201     -8.55250488     -3.56161967
    C      2.91084894     -0.11477898     -0.34898983      3.99043485     -4.77783913     -3.54201587     -1.86942767
    C      2.13048580     -2.37370411     -0.17966249      3.98236781     -1.69994445      2.79405373     -0.45301918
    C      1.17723373     -3.26513941      0.37385312      4.03600643     -0.68570942     -9.11914567      6.15998793
    C      0.05060740     -3.65053286     -0.45239474      3.96697726     -3.14516664      3.52368935      1.63031606
    C     -0.02027386     -3.30349981     -1.80087725      4.01232912     -3.30524092      3.55485328     -2.51931776
    C     -1.33242824     -2.91838532     -2.35473806      4.00518488     -8.70445172     -5.93032660      5.91049435
    C     -1.07875393     -1.81829084     -3.27638163      3.99874173     -3.91519231      8.09014614     -4.72043529
    C     -2.03902833     -0.74773356     -3.35299115      4.00467525      1.83279278      1.05449767     -0.50920300
    C     -1.52783435      0.64869936     -3.45933786      3.98840651      0.28177093      4.90066629      0.09413509
    C     -0.61634671      2.93045576     -1.99628065      4.02484220     -1.77173080     -3.66992872      2.40935846
    C     -2.01207689      2.58711211     -1.92501860      3.96627553      2.56365570      0.64184630      4.28852871
    C     -2.50270669      1.47788200     -2.71234965      4.03061123      5.69995940      8.40956855     -2.82737191
    C     -3.48589259      0.61019753     -2.09730500      3.98685121      5.65564314      1.61113266     -1.09630873
    C     -3.17693560     -0.77168583     -2.52003542      3.99697531     -5.08292006      2.11984871     -3.67683971
    C     -3.36641051     -1.82340945     -1.61944527      3.99577133     -1.38061044      4.28185860     -1.70578895
    C     -2.44060060     -2.93321494     -1.48937217      3.99762646      4.29337406      0.24451678     -6.27257470
    C     -2.35698973     -3.33769730     -0.11153496      4.00220243      0.91216595      1.80165683      5.43603132
    C     -1.07236649     -3.77198452      0.42456422      4.00531436    -11.07197188     -1.83844710     -0.27306876
    C      2.68324941     -1.22186056      0.57146182      4.03182240     -0.02120594     -4.92567216     -9.46015329
    C      0.66783170     -2.91950353      1.72776401      3.98497374     -7.22219408     -2.30608277     -6.50705758
    C      0.79563114     -0.16380720     -3.34969486      4.00250728     -0.59772977     -3.63874109      3.69157329
    C      1.13003500     -2.50498189     11.71474828      4.01136032      4.14083557     -4.44999497     -1.43486704
    C      2.30812925     -2.49448870     10.79381623      3.99405328      0.53731893     -3.44848297     -7.85989801
    C      3.26284131     -1.44840795     10.88434713      4.01540350      1.74684653     -0.98002407     -5.35471000
    C      3.06288914     -0.42312335     11.87449514      3.97591492      1.71220590     -1.50534143     -5.41095722
    C      2.00403409     -0.49240266     12.80039718      4.01839796      2.13211522     -1.18440319     -6.33933822
    C      0.95752915     -1.50125738     12.67944897      3.98196755     -2.31408430      0.68184564     -2.04815674
    C     -0.02156080     -2.98089246     10.94834392      3.98893104     -3.99614599     -9.07674632     -5.14986392
    C      0.37826701     -3.20265466      9.58197257      4.01210652      1.25643977      7.07685813      5.16838590
    C      1.83520113     -2.91916713      9.50204111      4.00296885      8.03485908     -1.46513906      1.06252978
    C      2.32055906     -2.21840949      8.37378672      4.00656765      9.07447167      3.56914488     -2.07006808
    C      3.77813906     -0.78079271      9.70399386      3.99200709     -1.84060326      8.38497290      3.00364219
    C      3.56782764      0.83858418     11.35428931      4.00100752      1.80711617     -2.17802943      1.64452571
    C      2.88597167      2.04918682     11.70850173      4.00476313     -0.45515074      0.88093571      0.98731112
    C      1.73424260      1.98915223     12.62078040      4.00972730      5.77882471     -6.14278980      0.13601313
    C      1.30820604      0.72808310     13.17717559      3.99788035      3.21177205    -10.09674076      1.30366376
    C     -0.14365866      0.47433815     13.31067416      4.00352814      0.42350437      1.88531956     -4.09572604
    C     -0.34509104     -0.94759441     13.02869240      3.99846148      2.39353054      1.49984108     -1.16776939
    C     -1.47412853     -1.42543167     12.27395325      4.02533586      6.65744350      4.02027138     -2.49876763
    C     -1.28547894     -2.42665194     11.18634385      4.00841778     -6.49333721      4.12926043     -4.48804123
    C     -0.47429506     -2.83709062      8.54325371      3.97548494     -1.48274460      5.61166502      0.49813211
    C     -1.80964175     -2.30469794      8.80508291      4.02894300     -2.14348180      2.52149522      1.03352507
    C     -2.18822022     -2.02347067     10.13747121      3.97746894     -1.61511902     -0.25012108     -4.75837596
    C     -2.95294714     -0.82439208     10.48210853      4.00880201      0.64172123     -8.86535556      6.75154162
    C     -2.44058090     -0.42956706     11.74500246      3.97076605      6.55448109      3.85053381      0.48016951
    C     -2.25857157      0.93234836     12.10026003      4.02485591      8.24428073     -5.72357207      4.74106155
    C     -1.06572803      1.41547871     12.82951367      3.98278604     -0.21700804      1.77278505      4.77657937
    C     -0.61482552      2.63526254     12.23752577      4.01534444      6.93931182     -0.47758869      5.87459133
    C      0.74984019      2.92542313     12.15237859      3.98236619      4.60656486      2.54337089      3.15042957
    C      4.02290464      0.63116514     10.00120880      3.99873437     -2.76912217     -3.24603531     -4.28802763
    C      0.79236605      3.72924169      8.49822214      4.02591924      2.78931387      4.16789113      5.99129520
    C      2.05269381      3.13023918      8.22924839      3.98741829     -0.44289972      0.44989847      1.43712745
    C      2.15717879      2.08972397      7.18444408      4.01463704     -4.83420191      3.12421087     -8.31036831
    C      1.02018054      1.68537551      6.43771307      4.00017907     -3.81300702     -0.19837800     -1.28152063
    C     -0.28687356      2.24108107      6.78612417      3.98877842     -6.17452998     -4.71920823      8.19561772
    C     -1.48799222      3.15329893      8.68265785      3.99885813      1.06267010      0.69398256      5.36253747
    C     -1.00678061      3.60663869     10.00534454      4.01260303      3.71542861     -8.64562390      9.20439646
    C      0.40033151      3.92834379      9.86799593      3.97070215     -1.51445375      8.06879866     -6.76168334
    C      1.26703315      3.62871115     10.95681966      4.02235649      4.78600521      0.07810155      2.88452798
    C      2.58414756      3.04940777     10.66377803      3.99126726      1.81669952     -2.18694067      3.79963088
    C      2.99210124      2.81070931      9.31379736      4.00719121     -2.37084186     -3.48696942     -3.65848668
    C      3.13985353      1.10620802      7.67800761      3.97882670     -3.81991349      3.76640251      1.33221210
    C      2.97068792     -0.22072506      7.31406049      4.01432313      9.03803038     -0.63851732     -1.29915023
    C      1.77577316     -0.67996945      6.64137477      3.99839586     -4.08298968      4.42908752     -1.00405755
    C      0.85085521      0.27600581      6.17421174      3.97899852    -10.40537900      4.44655965      1.31610912
    C     -0.54748069     -0.11569900      6.22013392      4.00996068      2.81408047      1.46223019     -6.27891630
    C     -1.29012005      1.14482495      6.56339772      4.03218935     -4.08224499     -0.09551385     -2.42748239
    C     -2.37423800      1.08569440      7.49962621      3.98722244     -0.52270520      0.49752013      3.47037069
    C     -2.48626127      2.11920244      8.55178550      4.01259028     -1.76029751      7.13554378     -6.91086426
    C     -1.52169761      2.93174525     11.10025808      3.98580420      2.74267549     -0.56371187      0.04419904
    C     -2.50122720      1.90670040     11.05326773      3.99250274     -5.70111604      1.44353838     -3.82649955
    C     -3.00595149      1.51985488      9.76858015      4.00210543     -8.66211671      2.23953999      3.52443738
    C     -3.24197760      0.11889133      9.50611089      3.98801648      2.86969292      7.52741715      0.93883487
    C     -2.84366588     -0.19135665      8.06841498      4.02688093      2.82877424      5.10543644      5.74412537
    C     -2.10419730     -1.33778587      7.78640596      3.96387231      0.09536953      1.78948623      5.38527284
    C     -0.99210211     -1.28832339      6.85319942      3.99332752      1.74566001      8.16442345     -7.59557051
    C      0.03625096     -2.27463276      7.31288259      4.02784397     -8.96327078     -0.66607172     -0.06436322
    C      1.35685124     -1.89532926      7.24659172      3.97891808     -2.92982712     -1.15302008     -4.62110783
    C      3.71645053      1.56288682      8.96556141      4.00371403      4.02676826      3.94632597     -6.73591016
    C      3.30142811     -1.17172306      8.42750776      4.00440564     -1.03081458     -5.73939093     -7.54748116
    C     -0.42734068      3.18345314      7.77960726      3.98718497      1.58613363     -1.39628696      8.13347316
