  120
MD iter: 879
    C     -2.11899818     -0.21568904      3.14128794      3.99885502     -1.54905884      5.21167610     -3.01158093
    C     -1.10592722     -1.26579186      3.24322935      4.00054154      5.30897475      0.63936005     -1.21390718
    C      0.28456442     -0.94741436      3.26452783      4.00310852      0.76525696      3.77685327      1.76396815
    C      0.74127174      0.42835130      3.15718692      4.01478860      7.27497730     -2.19852796      0.15361137
    C     -0.25463884      1.44751005      3.04555040      3.99702216      2.13352733      5.89068527      2.95314611
    C     -1.66761750      1.10790240      3.04551261      3.99896631      0.58986899      3.13540031     -1.58306754
    C     -3.15710106     -0.71128767      2.31268220      3.99162604     -4.72693612      0.01221724     -1.05309341
    C     -2.83138262     -2.05942563      1.87640509      3.99434947      1.71447963      0.31358038      3.31191349
    C     -1.52272783     -2.40412919      2.45346926      4.00617006     -7.86068897     -8.26441789     -2.83031141
    C     -0.66492295     -3.18338312      1.71514251      3.98663994     -1.74245777     -2.13939107      5.83194128
    C      1.17438941     -1.79530356      2.48787515      3.96470461      1.70296607      2.93217807     -2.28994505
    C      1.88658667      0.42592279      2.26237086      3.97768398     -1.12026221     -7.95857325      1.58747422
    C      2.09006324      1.50563716      1.40910232      4.01104614     -6.55647645     -1.29163469      3.65570606
    C      1.10259016      2.57203340      1.28094655      3.98332490      2.10143567     -2.30499959      0.25431540
    C     -0.05102523      2.57948569      2.11958202      4.01874765      1.58704491      5.49070595      2.64447523
    C     -1.36024296      2.93843820      1.60502550      3.98598231      9.97907671      2.57064707      9.09268869
    C     -2.33112105      2.04344390      2.12618415      4.00354076     -1.41958639      3.64908321      4.74426810
    C     -3.39018738      1.55579403      1.33626983      3.98771993     -1.71777768     -2.66931268      0.75659110
    C     -3.83496843      0.17281030      1.45273126      4.00866321      2.50747900      4.51829758      5.57515843
    C     -3.22525564     -2.53820023      0.64227301      4.00152493     -2.11133878      2.56191559      0.79152807
    C     -3.86515910     -1.58420465     -0.22576073      3.98354618     -0.13042176     -1.68798635      0.18454464
    C     -4.19464077     -0.25179790      0.11708452      4.00914375     -4.47433215      4.24135747     -3.51107140
    C     -4.00326658      0.83828630     -0.80902879      3.98700335     -2.45376066      3.44873292      0.16378719
    C     -3.47805274      1.96633326     -0.03892024      4.01259536      5.39160652      2.83223326     -0.13317630
    C     -2.50230693      2.79238773     -0.64942966      3.97840837     -1.73520519      3.85186252     -4.60714306
    C     -1.46998909      3.34731254      0.21478132      4.02696492      5.22679939      3.24816469     -2.71042277
    C     -0.27123391      3.35873705     -0.61204018      3.99161408      2.67377212      2.73824805      3.22118480
    C      0.97020094      3.00993117     -0.09335233      3.99726214     -0.79350372     -4.00189778      2.12281039
    C      2.21217638     -0.97388571      1.90302963      4.03693226     -8.52223881      7.78998339      1.42875954
    C      1.86285032      0.38696331     -2.55220161      3.99525986     -0.57635378     -1.63201997     -2.35268819
    C      2.51757538     -0.47508275     -1.68589710      4.00103936      2.55276810     -9.34584011      1.48816925
    C      2.09162501     -1.87407649     -1.56839489      3.99890888      0.74591063     -5.50756485      6.84971761
    C      1.02345352     -2.33826518     -2.33959466      3.98662396     -6.80770642     -5.38085139     -1.20556008
    C      0.37339446     -1.50317738     -3.33566719      4.00493134     -2.90098974     -3.75496453     -6.97825301
    C     -0.24286130      0.92428693     -3.47501669      3.97194709     -0.16050811     -3.49799235     -0.39090826
    C      0.26779606      2.08147224     -2.75242564      4.02276849      8.52126401     -2.57666536      1.54427943
    C      1.53946459      1.72159109     -2.13595348      3.99267379      2.21540077      0.36083154     -1.02596694
    C      1.92332598      2.17949588     -0.83541337      4.01705546      1.05719328     -4.18103521      0.66367854
    C      2.61184757      1.25447442      0.07610229      3.99261384      1.30767575     -5.50943539     -0.12059244
    C      2.90944595     -0.04762210     -0.34471207      4.00369963      3.87980726     -4.31222507      8.00666878
    C      2.25523670     -2.28514743     -0.18242429      4.02618746     -0.03500601      0.49101835     -0.65054417
    C      1.22872220     -3.10308674      0.38083284      3.96293060     -9.39387698     -0.23834438      1.23287598
    C      0.17870079     -3.72227397     -0.43911273      4.02157562     -4.06996487     -4.71063923     -2.68536061
    C      0.09156817     -3.29844278     -1.77541084      3.99188227     -4.66387291     -2.37526009     -5.59992437
    C     -1.21137217     -2.92669123     -2.33602512      4.00361115    -10.05910599     -1.72305563      9.77985976
    C     -1.00707650     -1.80646306     -3.30243357      3.99987345      1.53322048      5.05827654      0.24349128
    C     -1.99078972     -0.78388098     -3.32118272      3.99939144      5.20343838     -3.79635595     -4.11123615
    C     -1.57611220      0.61363258     -3.42898613      4.00845440     -0.24591937      0.04320361     -0.17815338
    C     -0.57315519      2.86234542     -1.94707834      3.97666036      7.36364794     10.80746280      4.40388225
    C     -1.97428500      2.58672220     -1.97826477      4.02891369     -5.61933608      2.06739849     -0.42353785
    C     -2.47268315      1.41441825     -2.64271485      3.97614688     -2.94492938      2.51917111      1.38056652
    C     -3.51532365      0.55323698     -2.11650542      4.02828079     -4.00603331     -3.94005907     -3.35470645
    C     -3.16549234     -0.83547907     -2.49392178      3.97842173      1.76898743      3.60629859      4.65769075
    C     -3.40873074     -1.88589700     -1.62199599      4.02368693     -0.37236617      4.58928878     -1.41359776
    C     -2.38016566     -2.96934555     -1.56749819      3.99293525      6.45777935      2.60237095     -5.69971050
    C     -2.34156911     -3.35767459     -0.17566414      4.00096392     -0.32484577     -2.90214640      3.68219437
    C     -1.03516176     -3.68851563      0.39214492      4.00548765     -9.31558057     -3.45309611     -1.82583320
    C      2.71932429     -1.16405295      0.56475875      3.97687819     -2.87561013     -8.24789697    -11.47581155
    C      0.78586801     -2.89977819      1.74212153      4.03218824     -1.54912726    -10.34992303     -3.87795325
    C      0.77278227     -0.10172327     -3.43330106      4.01855548     -2.42228987     -9.19054904      0.07359476
    C      1.12678697     -2.45708304     11.75855406      4.00126502      6.15883962     -0.57207305     -4.98571125
    C      2.25363213     -2.42683769     10.80533022      4.00669312     -1.48103260     -5.89387773      1.87172498
    C      3.20468215     -1.40196134     10.96135163      3.98570105      0.27837756     -4.59839081     -2.58348169
    C      3.07344860     -0.37528477     12.00475416      4.01968828     -0.23418542     -2.26772116     -2.46553152
    C      1.94544781     -0.37768847     12.85564338      3.97767193      0.31441911     -0.95302298      0.86608584
    C      0.98597060     -1.49924987     12.78011031      4.01531696     -4.35845733     -0.39894278     -1.53908299
    C     -0.06061722     -2.90730578     10.98937865      3.99759623      4.61687392      0.81287327     -7.48490028
    C      0.36009053     -3.24629454      9.63798606      3.99991300      6.94680442     -5.69580650     -3.65476497
    C      1.78372145     -2.86946328      9.55132073      3.98590304     -2.68890346      0.58445148     -2.09599204
    C      2.28651194     -2.27873046      8.38662855      4.00429830     -1.50152987      7.62228915     -0.71669567
    C      3.78486483     -0.82082597      9.75801494      4.01557482      8.84391623      2.96178920     -6.76597925
    C      3.50287873      0.85399462     11.38617097      3.99644545      1.62986491      2.04699146     -0.10232334
    C      2.80687929      2.06109328     11.69385780      4.00156353      1.65327308      4.76196136     -3.07981290
    C      1.67356627      2.03795635     12.57557374      3.98952621      6.99288526      0.81934838     -0.11834265
    C      1.23397954      0.81083092     13.17086641      4.01739488      2.69235524     -1.24291401     -0.12575818
    C     -0.19731051      0.46216205     13.26055835      3.99823329      2.94018977      0.02640862      6.43116589
    C     -0.31745651     -0.94243746     13.00488065      3.98482235     -2.20406644     -8.00488116     -3.71667201
    C     -1.48096434     -1.35454073     12.31649608      4.00238948     -2.51164331     -4.09126047     -0.34569055
    C     -1.31809996     -2.39031536     11.27239938      3.99320876      1.13995881      1.07957049      3.02821211
    C     -0.48810483     -2.97681109      8.53477006      4.01414548      0.80093563      4.40745496     -5.52162011
    C     -1.77890768     -2.33830879      8.78574952      3.97860955      1.03930365      3.06141623      2.89083952
    C     -2.18016405     -2.11612621     10.15952214      4.01944481      2.06120755      4.54926488     -1.58037877
    C     -2.86621082     -0.90188611     10.44636347      3.96107401      0.97239971      0.14710359      1.23475272
    C     -2.51417123     -0.45384603     11.83085733      4.03312192      1.26511532      5.29637570      5.27397970
    C     -2.28453659      0.93151789     12.05273894      3.98410817      1.22457238     -2.73238312      7.13709519
    C     -1.12954904      1.36687614     12.77075762      3.99191236      2.26776574     -8.11197657      1.47085495
    C     -0.67668463      2.63514328     12.20286925      3.99553191      2.79833305     -0.70276296      1.26623261
    C      0.68629646      2.96927235     12.09349525      4.00883324      0.84677553     -1.11723626     -1.88295635
    C      3.93262218      0.58647780     10.00562158      4.00870787     11.81082073     -2.16139336     -3.31418096
    C      0.77291767      3.59514895      8.48298930      3.98236628      0.54549285      2.33920845      0.38393644
    C      2.06832573      3.11368701      8.24769913      4.01257620      0.39080227      0.23269644     -1.15119261
    C      2.19191281      2.07401374      7.22597586      3.99813479     -2.97971269      1.61805876      7.36838458
    C      1.09958790      1.58492042      6.48676550      3.99191779      3.01808328      4.23502470      1.00393619
    C     -0.20602635      2.23154628      6.66247982      4.01683689     -3.64057712      0.75067443     -5.49689841
    C     -1.49899047      3.17854418      8.56275250      4.02053671     -5.91491215     -4.01887242     10.00023754
    C     -1.08550019      3.60519411      9.92572003      3.99467818     -2.63381435      4.12183075      5.59795728
    C      0.32293416      3.86046111      9.78833705      3.99631694     -0.36978694     -0.91675061      1.24859281
    C      1.20582624      3.57264618     10.86103033      4.00512910      9.35398250     -1.71196918     13.73233997
    C      2.55159647      3.03724864     10.66379317      4.00468361      6.11527673     -2.78711237      2.07902456
    C      2.94430518      2.80089790      9.33555203      3.99612679      5.51435435      2.37109672     -2.33149875
    C      3.24136163      1.15778810      7.72539834      4.02108773     -1.70867740      1.15663055     -3.39261775
    C      3.02016747     -0.21431863      7.51024583      3.98637577     -2.13574633      1.25238928     -0.33522659
    C      1.88263456     -0.70647096      6.66370371      4.01450840     -0.37422948      0.45148929     -5.55092741
    C      0.88943319      0.19733071      6.19913645      3.99564891     -8.58992011      3.64914793     -9.18745622
    C     -0.49481090     -0.07528173      6.37908030      3.97916166     -9.23991326      0.44543514     -1.97727868
    C     -1.20485601      1.15060507      6.68578607      3.98877371     -5.43960512     -1.74950412     -0.28817400
    C     -2.32881535      1.11158042      7.50821100      4.00298540     -5.49238053     -0.38446366      2.27076080
    C     -2.40611930      2.08460887      8.52727530      3.98460942      1.82733307     -4.28951629      2.83554903
    C     -1.59936987      3.00919653     11.08494449      4.00950723     10.67655034      5.25871378     -2.04618758
    C     -2.54461405      1.91521355     10.97413339      4.01122358      4.51819576      2.03928032     -2.02757446
    C     -2.94864348      1.42101909      9.70047682      3.98980019      1.65331106     -2.03267062      7.62873813
    C     -3.20319642      0.01120890      9.43305615      4.03343595     -9.47679443     10.65158469     -9.02902011
    C     -2.78153639     -0.18084145      8.02080150      3.99059284     -8.97187585      6.90147757     -1.98505939
    C     -2.12665655     -1.39414937      7.74229579      4.00636828     -3.36907235     -1.51566948      1.49653391
    C     -0.95872792     -1.30084394      6.84395366      4.02784501      4.64773242      1.89723448     -3.48647898
    C      0.04099749     -2.27348664      7.37644475      3.97226096     -0.41793742      0.32165863      1.75911958
    C      1.38428161     -1.97750644      7.21526229      4.02150726      0.41653648      2.82351757      7.90757129
    C      3.60525690      1.55851559      9.02154830      3.97440953     -3.86695663      1.31987159     -4.14075144
    C      3.24935788     -1.24296788      8.51946034      3.98699251     -7.82820222      0.93975492    -11.52033851
    C     -0.37388887      3.21510233      7.62359242      3.99588372      3.15040400      3.14125518      1.31244643
