  120
MD iter: 99
    C     -1.08261787     -0.98457122      3.20253888      4.01052251     -2.43846823      0.63495999     -0.29060848
    C      0.42045540     -1.05062687      3.20943637      4.00458168     -0.79802349      2.07565589      1.75435009
    C      1.15563647      0.10681858      3.18963783      3.99450659     -0.41539237     -0.21183764      0.71152132
    C      0.49412611      1.40779942      3.11218355      3.98437414     -0.55131124      0.06942081      2.42670082
    C     -0.91802239      1.48173692      3.09643165      4.01421845      3.69584768      7.19747787     -3.05241507
    C     -1.69662288      0.26506130      3.11657176      3.98970830      4.33414649      1.40324110      1.88986400
    C     -1.59807632     -2.05432719      2.36350206      3.98677147      1.82558599     -3.91744944     -1.35430804
    C     -0.47790338     -2.80327394      1.84818734      4.01359018     -2.45200004     -4.21555942      1.24330172
    C      0.75292366     -2.15851831      2.34069302      3.98737919     -5.84755134      1.31221953      1.48423626
    C      1.90446775     -2.04845497      1.55142276      4.00572623      5.85274081      2.72536960     -1.56403400
    C      2.38110652      0.23209194      2.36321456      4.01714765     -0.60999845     -0.66871641     -0.31890464
    C      1.27230178      2.34013651      2.32647532      4.02384395     -1.89458752      0.49537645     -1.75206569
    C      0.62365023      3.24156937      1.47538989      3.97661781     -2.83539366     -4.15552178     -7.91977005
    C     -0.81508303      3.33383340      1.44734706      4.00981338      3.03966628     -3.62027609     -1.02945239
    C     -1.56231223      2.44900990      2.23542970      3.99199987     -1.45919088     -1.65520092      0.45979192
    C     -2.78481501      1.83703137      1.73630304      4.00398656      0.05611509      1.10766381     -1.42018996
    C     -2.89559862      0.49201922      2.27639453      3.99483746     -3.70916576      5.56708435      4.94368825
    C     -3.41307492     -0.54329838      1.49122287      4.01259636     -6.70182065      3.80837776      1.62462982
    C     -2.73710737     -1.84583966      1.51796427      4.01159955     -7.85202258      0.64231433     -1.74033832
    C     -0.53371666     -3.32991469      0.48393668      4.00583068     -4.86843626     -1.33092661     -5.18769169
    C     -1.67120749     -3.08769170     -0.36128915      3.98859665      0.47838846      4.83656476     -5.61440298
    C     -2.75160827     -2.37521398      0.12692415      3.99579763     -0.29898491     -2.05874374      3.60170599
    C     -3.40018857     -1.41071005     -0.72259121      4.00870006      2.04591108      1.66326213      0.82645987
    C     -3.80181789     -0.26444868      0.08139640      3.97607855     -3.14370225      2.80379023     -0.25011990
    C     -3.76000773      1.04796092     -0.39009897      4.02799426     -3.11994177      4.13786173      0.64848894
    C     -3.17883099      2.10118692      0.43714594      3.98524954      5.33420494      1.87204589     -0.21600911
    C     -2.38490172      2.97559287     -0.44637844      3.99272614      3.14077831      5.31852022      1.64428008
    C     -1.21382294      3.61426949      0.06410166      4.00943697      4.59496350      1.91742862      6.87421932
    C      2.46122085      1.58244858      1.82238832      3.98380424      4.09240953     -3.27154206     -1.12390025
    C      1.10276904      2.41485777     -2.58276672      3.99874119      3.88865060     -0.75066754     -1.57001123
    C      2.18781221      2.21468036     -1.72206406      3.99752138     -2.34024801      2.19978075      3.31542369
    C      2.89341266      0.89938705     -1.70455360      4.02095524      0.52208911      0.80575063     -1.51468503
    C      2.35247114     -0.15261887     -2.48150395      3.98758748      0.81465123     -8.75243768      1.75630909
    C      1.20268690      0.10645655     -3.34599677      4.01248682      4.50318888     -2.25469748      2.11440398
    C     -0.89427749      1.48869153     -3.42864421      4.03264090      0.28084482      8.58685591      2.53080921
    C     -1.25702536      2.58142923     -2.56572944      3.97656900     -0.94099425      9.10094580     -0.98745934
    C     -0.01676852      3.19455138     -2.02961711      4.01590940      8.59155167     -1.52420913     -1.89937564
    C     -0.01726211      3.70208144     -0.74161496      3.98182062      3.10411414     -4.72496825     -2.08350920
    C      1.17883451      3.53611393      0.11131939      4.02435437     -0.85052425      2.87825403      3.17969813
    C      2.22679779      2.77586190     -0.35132861      3.97900571     -4.97889395      2.63184348     -4.63526653
    C      3.32644140      0.61340776     -0.33089678      3.96878274      0.65285909    -10.08054050      1.14802831
    C      3.27624663     -0.68195573      0.18164118      4.03475651      2.16213089     -1.75991593     -4.80950632
    C      2.63953085     -1.77875654     -0.62119231      3.99101931     -4.91181874     -0.71068095      2.56854138
    C      2.23028837     -1.47225077     -1.92584195      3.99746264    -10.69254164     -3.17859078     -0.30647762
    C      1.03629757     -2.10172514     -2.49455779      4.00705243     -2.02667983     -4.03090563     -3.61363837
    C      0.40398183     -1.10559456     -3.33605301      3.99550318      1.74975332     -5.06189152     -0.44745716
    C     -1.01512342     -1.00058006     -3.35924904      3.99793348     -1.38358257     -0.26887790      2.91239493
    C     -1.68755341      0.26193444     -3.35452580      3.97507167      2.44334480     -5.38331303     -0.48326557
    C     -2.41688901      2.49779592     -1.78111708      4.02729871     -2.96259870      1.38515895     -4.30974332
    C     -3.22557285      1.20863017     -1.74127122      3.96389634      0.29670091      3.90889908     -1.03570710
    C     -2.93045239      0.15171654     -2.58313409      4.03336644     -0.44718571     -1.02042591     -2.56421513
    C     -2.94517625     -1.20067390     -2.03259824      3.98113840      0.63625826     -1.94682359      3.15970369
    C     -1.80404983     -1.95853614     -2.56943741      4.01852423      2.02082310     -1.66727737     -8.13847933
    C     -1.19373301     -2.89149140     -1.71149770      3.98931127     -3.13424252     -2.03015230      1.05945106
    C      0.25888323     -2.97971572     -1.69619887      4.00444980     -3.90121847     -2.49963355      1.27345280
    C      0.68130087     -3.24666721     -0.31108718      4.00081233      2.35605368      4.53297173     -0.92860009
    C      1.83553757     -2.64613204      0.20436324      3.99838723     -3.78030020     -3.26679766     -1.69956867
    C      2.94314711      1.77753560      0.50326918      4.02154494     -0.45775666     -6.86139875      7.64828214
    C      2.71365447     -0.85905049      1.54113732      3.97660416     -2.58547178     -5.17807375      1.35873975
    C      0.57197658      1.36328273     -3.39518425      3.98153990     -1.74857029     -6.31004175      0.89912551
    C     -0.60736509     -1.36036469     12.97608022      3.99761834      4.92238976     -2.23299642     -2.37834989
    C      0.81794944     -1.39169555     12.90277650      3.98834033      0.46900035     -0.60749919     -4.26050073
    C      1.56782876     -0.18881880     12.97859339      4.01561877      2.09975949     -3.24422210      3.65033494
    C      0.83196135      1.08889768     13.02105237      3.99776670      5.67360741      0.32329540      1.37687945
    C     -0.59326068      1.11751769     13.08577514      4.00491742     -0.77838757      2.58832848      4.65325501
    C     -1.29218720     -0.16059523     13.04685973      3.98962655      6.01771069      2.08227798      2.24839791
    C     -1.10638194     -2.44933418     12.11614675      3.98714979      2.91670328     -4.47618204     -2.66232520
    C      0.03447722     -3.15990793     11.53917821      4.02914321     -6.20571975     -3.45038404     -0.60433005
    C      1.25775450     -2.43845058     11.97671492      3.98667976      0.68412367      3.79183447     -8.49765957
    C      2.38440765     -2.29298442     11.17119079      4.01305814     -7.62828827      2.99607182     -0.79348629
    C      2.71345605     -0.01825133     12.03731133      4.00726957      3.13854344     -5.44016429      6.78591010
    C      1.51654243      2.03307832     12.14312368      4.00421252      6.00545061      0.06761974     -4.30001263
    C      0.82042111      2.99363587     11.43472763      3.99156739      5.37433418     -3.94816674      4.04509333
    C     -0.62543141      3.04939238     11.52225066      4.01205569     -5.39054239     -0.32307375      2.91353547
    C     -1.29747625      2.10311063     12.30885175      3.98921451      0.86696978      4.45803972      5.12731105
    C     -2.49626647      1.42853328     11.79890438      4.00930668      1.78428647     -8.05476612      5.45747692
    C     -2.53707309      0.04258336     12.26960801      4.00992180     -3.13236962      0.30746198      1.17027929
    C     -3.02646414     -0.99515657     11.44131286      4.00308998      1.82981731     -1.60499059      1.39591226
    C     -2.26475999     -2.25132820     11.36479101      4.01000229      6.49057170     -1.61125706      4.21487654
    C      0.01977407     -3.59241881     10.19369833      3.97502168     -0.25323181     -4.15480893     -5.07819785
    C     -1.25108929     -3.38728668      9.40301282      4.03171333     -1.98962979      2.10218088      4.97798165
    C     -2.30754321     -2.68608394      9.94540784      3.96679294      1.75560829      0.61287587     -3.49508045
    C     -3.16099673     -1.72644915      9.18964930      4.05366200     -4.97398923      1.19494169      0.73298046
    C     -3.50911407     -0.61849122     10.11658052      3.97624451      3.52454803     -2.40067543     -3.72194914
    C     -3.52908321      0.71632537      9.69155946      4.01593239     -0.89269376      2.66878381     -2.20732622
    C     -2.99503806      1.76898487     10.50768643      3.99247873      5.32974488     -0.54508192     -0.50454773
    C     -2.33719030      2.81692468      9.67953793      4.00418057      0.39430119     -0.39467275     -0.13449779
    C     -1.17065887      3.37735889     10.15068337      3.98887730     -0.43462806      0.80004133      7.02377758
    C      2.66909244      1.32877438     11.51362763      3.99159706      0.10762787     -2.89431530      4.78815297
    C      1.08923451      2.42274324      7.31782183      4.01976427     -1.28197643      7.03855140     -5.62145783
    C      2.21745874      2.20292813      8.08803572      3.97677851     -1.35776696      3.09498602     -1.08708687
    C      2.95543904      0.93562931      7.96661223      4.01051554      0.74358053      3.34874435      1.98425411
    C      2.48070686     -0.12442566      7.15339578      4.00113255      6.97895426     -2.06831600      2.82482068
    C      1.25629783      0.10409121      6.41000496      3.99844890     -3.46791465     -2.14495853     -0.51106350
    C     -0.88696583      1.40312492      6.55291518      3.98367198     -2.64481656      1.55376798     -1.15198323
    C     -1.29192910      2.47824995      7.42688551      4.02041843      5.21842067      1.20443188     -3.94266963
    C     -0.05086676      3.04588232      7.98613613      3.98676264      1.28570702      0.37480512      5.75387473
    C     -0.00505261      3.50427709      9.30708109      3.99922059      5.24349586     -6.57616896      5.33035749
    C      1.22442036      3.31164619     10.05861450      3.99861592      2.49007629      2.54050568     -6.70613010
    C      2.33435183      2.68266047      9.46730144      4.01186100     -0.22060258      3.10020758      0.36909041
    C      3.45692486      0.61051990      9.30992159      3.99258743      0.52106445     -5.81150609     -0.74175014
    C      3.50748060     -0.70302065      9.75066226      3.99838540     -1.13384286     -2.06046586     -8.74847368
    C      3.03447239     -1.83172939      8.93998558      4.01966833     -2.74776277     -1.19378475     -6.93325059
    C      2.47442897     -1.47845469      7.68774377      3.97954363      1.21483539     -0.74778852      1.12735995
    C      1.27537423     -2.13822798      7.19719672      4.00631064     -0.27449948     -2.45086956     -0.39319191
    C      0.49449392     -1.17204512      6.40582976      4.01026337      1.94602412      6.74158058     -2.70625369
    C     -0.90629420     -1.10532185      6.48113344      3.99837826     -2.63243605      0.88552103      1.54506743
    C     -1.60689587      0.20394179      6.54543141      4.00995451    -10.07360090      7.41225891      5.35858715
    C     -2.45220834      2.32883310      8.30668777      3.99835602     -3.25494076     -0.78621978     -0.28537650
    C     -3.12783361      1.05915149      8.30106579      3.99408219     -4.05084594      4.21191821      7.75604786
    C     -2.69414204      0.00646391      7.46223546      3.99958296      1.17735105      5.49310304      4.39596611
    C     -2.67551975     -1.35140077      7.90803306      3.95557459      0.34554207      1.23697818     -2.63548973
    C     -1.62232438     -2.07875285      7.31528352      4.01556727     -0.79232684      0.04778575      1.36262764
    C     -0.86605150     -3.03352378      8.02728763      3.99104657     -3.05267781     -0.26161528     -0.33794344
    C      0.63307503     -3.06796108      8.01167925      3.99254966     -4.32402081     -4.16019060      1.37030871
    C      1.16615096     -3.43138941      9.32516419      4.00796608      4.82278289      2.52331679      0.46323859
    C      2.31209223     -2.78692538      9.77522305      3.97979029      4.85426625      7.55720494     -2.23783754
    C      3.07483912      1.66767917     10.22957216      4.00447087      3.25183815     -0.33039216     -4.64455957
    C      3.12863717     -1.03893803     11.13979219      3.99761646      3.16563431      4.11593506     -2.79847795
    C      0.57420737      1.33515724      6.48102887      3.99797128     -6.03031378      6.24917676     -1.27892216
