  131
Geometry Step: 2733
   Ti     -3.81334191      1.56165084     -2.49142898      3.20483939
   Ti     -1.64531948      3.50399527     -2.03471475      3.26871508
    O     -1.66444760      1.68624890     -1.79800415      6.35448229
    O     -3.18501182      3.26328079     -3.06846168      6.43805536
    O      1.68404534      1.78619019     -1.58741422      6.35330519
    O     -5.60117235      1.49190122     -2.89062179      6.40957947
   Ti     -4.61633159      1.62711242      1.16930442      3.22581195
   Ti     -6.48961145      1.42267602     -1.18941637      3.23626320
   Ti     -1.91677831      3.52956552      1.34364314      3.35957106
    O     -8.00088793      2.46159084     -1.60495015      6.47827606
    O     -1.44206953      1.81957913      1.19781223      6.34677042
    O     -4.29626711      1.65908683     -0.70294566      6.34093838
    O     -3.69444985      3.16285932      1.76063146      6.41674575
    O      1.51740547      1.90734194      2.58210905      6.36917232
    O     -6.38335564      1.79602555      0.68483711      6.40977717
    O     -1.94709035      4.23166281     -0.37073631      6.36109031
   Ti     -3.69327312     -2.12062379     -2.39152226      3.20515640
   Ti     -1.32144707     -0.18607974     -1.92678987      3.24444309
    O     -1.53197962     -2.07380987     -1.74002700      6.34478071
    O     -3.14392986     -0.27028906     -2.77773895      6.39929272
    O      1.81665875     -1.91490023     -1.10644628      6.35515877
    O     -5.49966316     -2.23348350     -2.67229428      6.40323457
   Ti     -4.19254935     -2.02587850      1.33887783      3.14886233
   Ti     -6.29094089     -2.06577150     -0.92241364      3.23706761
   Ti     -1.55842921     -0.03356024      1.51798142      3.09501352
    O     -6.92796250     -0.35585943     -1.08866595      6.33458545
    O     -1.93618747     -1.91349051      1.32915807      6.34800479
    O     -4.06639238     -2.13434317     -0.57411956      6.34480140
    O     -3.79832225     -0.08079350      1.35508944      6.42118449
    O      1.68576674     -1.89318098      1.92571856      6.32913986
    O     -6.00221818     -2.16606605      0.96482598      6.40362960
    O     -0.61315723     -0.18450023     -0.19376339      6.38441227
   Ti     -1.37537102     -3.87993061     -1.91987819      3.27776018
    O     -2.94549007     -3.78724525     -2.93471391      6.43711576
   Ti     -1.75631503     -3.73734001      1.46076165      3.29263866
    O     -7.67467760     -3.32464361     -1.09573841      6.47657796
    O     -3.55649338     -3.77568396      1.87374955      6.42297279
    O     -1.61425596     -4.51259884     -0.21160822      6.36382848
   Ti      1.63415608      3.59901203     -1.56094439      3.29302231
   Ti      6.17908180      1.86879785      0.67985897      3.21913102
   Ti      3.93891190      1.83630802     -1.34327014      3.13994715
    O      3.44614481      3.54934093     -2.01483618      6.44616953
    O      7.61461703      3.08274082      0.68306672      6.47826256
    O      5.76850170      1.92428179     -1.19317638      6.42367267
    O      1.46366277      4.00226377      0.22469456      6.35721711
    O      5.57921634      2.15984278      2.49459487      6.42500101
    O      3.92339622      1.89672200      0.54505385      6.34191176
   Ti      1.31000534      3.66090940      2.02467426      3.21717551
   Ti      3.75616514      2.08480081      2.38992273      3.11182897
    O      3.09131818      3.83775631      2.65847026      6.46497929
   Ti      1.37489005     -0.07228893     -1.25524851      3.06910558
   Ti      6.34016103     -1.63416949      0.70922995      3.22975710
   Ti      4.07558286     -1.76380813     -1.28448618      3.18677808
    O      3.54575147     -0.00074261     -1.84220025      6.42220157
    O      7.89399159     -2.69086744      0.73383597      6.47684218
    O      5.91344162     -1.77766366     -1.15638022      6.42125550
    O      1.81115568      0.29997750      0.50974477      6.38849440
    O      6.77851655      0.14667198      0.80882225      6.33714757
    O      4.09489544     -1.75628711      0.58652025      6.34029996
   Ti      1.57790498      0.00266876      2.25852683      3.29932881
   Ti      3.88712644     -1.86477707      2.44741724      3.19514278
    O      3.39701549     -0.05122096      2.97619346      6.43848579
   Ti      1.91248279     -3.72043754     -1.38058907      3.27798937
    O      3.63336693     -3.45458152     -2.03363587      6.43387395
    O      1.90233344     -4.41091762      0.33268020      6.37285794
    O      5.72465780     -1.95360544      2.50076782      6.41733737
   Ti      1.58864939     -3.70539662      2.01382890      3.29077193
    O      3.19985159     -3.56222989      2.98107329      6.44895063
    O      0.08513108      4.02086748     -2.52104380      6.41098513
    O      0.40895638     -4.21019174     -2.37043040      6.40694302
    O      0.26589847     -0.20321145     -2.81698146      6.45290275
    O     -0.19196265     -4.09559449      2.43844945      6.41473647
    O     -0.45622020      4.18711073      2.36166571      6.42783586
    O     -0.18724315     -0.26340134      2.73860390      6.39751594
    H      8.38085443      3.58278802      0.32678838      0.74904255
    H      8.67238298     -3.17891312      0.38881182      0.74976797
    H     -8.83924365      2.95016909     -1.45941778      0.75177889
    H     -8.45903588     -3.86190333     -0.85306134      0.75052149
    O     -2.36310827      0.49458491      3.57240610      6.37259233
    O     -5.45071378      1.44310718      3.27779028      6.38039543
    P     -3.94785273     -0.16368104      4.12621714      4.49679403
    O     -4.51018405     -1.78706990      3.54817232      6.37106613
    H     -5.33330562      2.12711565      3.97181534      0.76571128
    C     -4.07536733     -0.02791177      8.84397474      3.96918998
    C     -3.41108807      0.96905977      8.10970491      4.06580077
    H     -2.88616764      1.78283333      8.64028746      0.94057752
    C     -3.38219165      0.93668694      6.71810613      4.03753989
    H     -2.83457725      1.72399785      6.17063849      0.92365765
    C     -4.02646157     -0.09526843      6.02304853      3.99037152
    C     -4.71449125     -1.08119096      6.74219919      4.03081051
    H     -5.23795195     -1.89789937      6.21480370      0.91895400
    C     -4.72660126     -1.05064397      8.13412475      4.06627647
    H     -5.26440758     -1.84244311      8.68480651      0.94059389
    H     -7.29148787      5.85865995     12.88240987      0.96897565
    H     -6.12191006      3.16787235     15.08432459      0.95741590
    C     -7.69561173      4.81902876     12.71094758      4.00518226
    C     -6.92634933      3.83734098     14.69802328      4.00335035
    H     -1.85933854     -3.01036051     15.10637728      0.95688886
    N     -6.94028763      3.85137591     13.32541312      5.01089531
    H     -0.43791201     -4.68085301     11.63095321      0.95439997
    H     -6.75003103      4.85952517     15.12600055      0.96468194
    H     -7.72838574      4.65996732     11.60762598      0.95560407
    C     -6.26171921      2.92762421     12.61099432      3.81715962
    C     -5.49070720      1.91452784     13.23831050      4.24166056
    C     -6.28563302      2.92205344     11.18028374      4.14437213
    C     -4.78549165      0.97330758     12.49632820      3.72791528
    O     -4.06061904      0.01028098     13.23800099      6.18652993
    C     -4.79782880      0.97490772     11.06695554      4.06575309
    C     -5.59163066      1.98956177     10.44741424      4.03295364
    H     -5.44217503      1.87334315     14.34178253      0.92983522
    C     -4.07501283     -0.01167502     10.34381151      3.96481597
    C     -3.34284344     -0.98474192     11.07505406      4.06549056
    C     -3.33879560     -0.96133005     12.50417967      3.72818421
    C     -2.55004696     -2.00467153     10.46171269      4.03155363
    H     -6.88737613      3.68678652     10.65298218      0.93722924
    C     -2.62051338     -1.88751082     13.25207791      4.24189456
    C     -1.83893313     -2.91858692     11.20042934      4.14266953
    C     -1.84478653     -2.90178500     12.63164673      3.81639707
    C     -1.14894504     -3.77988558     14.72341862      4.00414281
    N     -1.14458856     -3.80506866     13.35091261      5.00914677
    C     -0.38014653     -4.76862006     12.74105756      4.00607419
    H     -2.65270201     -1.82800790     14.35570312      0.92989318
    H     -1.23873527     -3.68775290     10.67761257      0.93560834
    H     -0.13533582     -3.53901972     15.15628130      0.96869389
    H      0.70736637     -4.69669012     13.02551383      0.96622536
    H     -8.75773231      4.82811415     13.08107361      0.96601085
    H     -7.89850927      3.46996452     15.14304383      0.97123555
    H     -1.45410715     -4.76809076     15.16606305      0.96668303
    H     -0.70902414     -5.81195043     13.01042138      0.96720371
    H     -5.65602715      2.02907157      9.34615220      0.93468884
    H     -2.49908083     -2.06131632      9.36046692      0.93222922
